
---------- Begin Simulation Statistics ----------
simSeconds                                   1.923711                       # Number of seconds simulated (Second)
simTicks                                 1923710740000                       # Number of ticks simulated (Tick)
finalTick                                1923710740000                       # Number of ticks from beginning of simulation (restored from checkpoints and never reset) (Tick)
simFreq                                  1000000000000                       # The number of ticks per simulated second ((Tick/Second))
hostSeconds                                    205.00                       # Real time elapsed on the host (Second)
hostTickRate                               9383917448                       # The number of ticks simulated per host second (ticks/s) ((Tick/Second))
hostMemory                                     687708                       # Number of bytes of host memory used (Byte)
simInsts                                    338594450                       # Number of instructions simulated (Count)
simOps                                      338594450                       # Number of ops (including micro ops) simulated (Count)
hostInstRate                                  1651673                       # Simulator instruction rate (inst/s) ((Count/Second))
hostOpRate                                    1651673                       # Simulator op (including micro ops) rate (op/s) ((Count/Second))
system.clk_domain.clock                          1000                       # Clock period in ticks (Tick)
system.clk_domain.voltage_domain.voltage            1                       # Voltage in Volts (Volt)
system.cpu.numCycles                       1923710740                       # Number of cpu cycles simulated (Cycle)
system.cpu.numWorkItemsStarted                      0                       # Number of work items this cpu started (Count)
system.cpu.numWorkItemsCompleted                    0                       # Number of work items this cpu completed (Count)
system.cpu.dcache.demandHits::cpu.data      122102689                       # number of demand (read+write) hits (Count)
system.cpu.dcache.demandHits::total         122102689                       # number of demand (read+write) hits (Count)
system.cpu.dcache.overallHits::cpu.data     122102689                       # number of overall hits (Count)
system.cpu.dcache.overallHits::total        122102689                       # number of overall hits (Count)
system.cpu.dcache.demandMisses::cpu.data       940900                       # number of demand (read+write) misses (Count)
system.cpu.dcache.demandMisses::total          940900                       # number of demand (read+write) misses (Count)
system.cpu.dcache.overallMisses::cpu.data       940900                       # number of overall misses (Count)
system.cpu.dcache.overallMisses::total         940900                       # number of overall misses (Count)
system.cpu.dcache.demandMissLatency::cpu.data  80749719000                       # number of demand (read+write) miss ticks (Tick)
system.cpu.dcache.demandMissLatency::total  80749719000                       # number of demand (read+write) miss ticks (Tick)
system.cpu.dcache.overallMissLatency::cpu.data  80749719000                       # number of overall miss ticks (Tick)
system.cpu.dcache.overallMissLatency::total  80749719000                       # number of overall miss ticks (Tick)
system.cpu.dcache.demandAccesses::cpu.data    123043589                       # number of demand (read+write) accesses (Count)
system.cpu.dcache.demandAccesses::total     123043589                       # number of demand (read+write) accesses (Count)
system.cpu.dcache.overallAccesses::cpu.data    123043589                       # number of overall (read+write) accesses (Count)
system.cpu.dcache.overallAccesses::total    123043589                       # number of overall (read+write) accesses (Count)
system.cpu.dcache.demandMissRate::cpu.data     0.007647                       # miss rate for demand accesses (Ratio)
system.cpu.dcache.demandMissRate::total      0.007647                       # miss rate for demand accesses (Ratio)
system.cpu.dcache.overallMissRate::cpu.data     0.007647                       # miss rate for overall accesses (Ratio)
system.cpu.dcache.overallMissRate::total     0.007647                       # miss rate for overall accesses (Ratio)
system.cpu.dcache.demandAvgMissLatency::cpu.data 85821.786587                       # average overall miss latency ((Cycle/Count))
system.cpu.dcache.demandAvgMissLatency::total 85821.786587                       # average overall miss latency ((Cycle/Count))
system.cpu.dcache.overallAvgMissLatency::cpu.data 85821.786587                       # average overall miss latency ((Cycle/Count))
system.cpu.dcache.overallAvgMissLatency::total 85821.786587                       # average overall miss latency ((Cycle/Count))
system.cpu.dcache.blockedCycles::no_mshrs            0                       # number of cycles access was blocked (Cycle)
system.cpu.dcache.blockedCycles::no_targets            0                       # number of cycles access was blocked (Cycle)
system.cpu.dcache.blockedCauses::no_mshrs            0                       # number of times access was blocked (Count)
system.cpu.dcache.blockedCauses::no_targets            0                       # number of times access was blocked (Count)
system.cpu.dcache.avgBlocked::no_mshrs            nan                       # average number of cycles each access was blocked ((Cycle/Count))
system.cpu.dcache.avgBlocked::no_targets          nan                       # average number of cycles each access was blocked ((Cycle/Count))
system.cpu.dcache.writebacks::writebacks       443334                       # number of writebacks (Count)
system.cpu.dcache.writebacks::total            443334                       # number of writebacks (Count)
system.cpu.dcache.demandMshrMisses::cpu.data       940900                       # number of demand (read+write) MSHR misses (Count)
system.cpu.dcache.demandMshrMisses::total       940900                       # number of demand (read+write) MSHR misses (Count)
system.cpu.dcache.overallMshrMisses::cpu.data       940900                       # number of overall MSHR misses (Count)
system.cpu.dcache.overallMshrMisses::total       940900                       # number of overall MSHR misses (Count)
system.cpu.dcache.demandMshrMissLatency::cpu.data  76986119000                       # number of demand (read+write) MSHR miss ticks (Tick)
system.cpu.dcache.demandMshrMissLatency::total  76986119000                       # number of demand (read+write) MSHR miss ticks (Tick)
system.cpu.dcache.overallMshrMissLatency::cpu.data  76986119000                       # number of overall MSHR miss ticks (Tick)
system.cpu.dcache.overallMshrMissLatency::total  76986119000                       # number of overall MSHR miss ticks (Tick)
system.cpu.dcache.demandMshrMissRate::cpu.data     0.007647                       # mshr miss ratio for demand accesses (Ratio)
system.cpu.dcache.demandMshrMissRate::total     0.007647                       # mshr miss ratio for demand accesses (Ratio)
system.cpu.dcache.overallMshrMissRate::cpu.data     0.007647                       # mshr miss ratio for overall accesses (Ratio)
system.cpu.dcache.overallMshrMissRate::total     0.007647                       # mshr miss ratio for overall accesses (Ratio)
system.cpu.dcache.demandAvgMshrMissLatency::cpu.data 81821.786587                       # average overall mshr miss latency ((Cycle/Count))
system.cpu.dcache.demandAvgMshrMissLatency::total 81821.786587                       # average overall mshr miss latency ((Cycle/Count))
system.cpu.dcache.overallAvgMshrMissLatency::cpu.data 81821.786587                       # average overall mshr miss latency ((Cycle/Count))
system.cpu.dcache.overallAvgMshrMissLatency::total 81821.786587                       # average overall mshr miss latency ((Cycle/Count))
system.cpu.dcache.replacements                 907575                       # number of replacements (Count)
system.cpu.dcache.ReadReq.hits::cpu.data     92997822                       # number of ReadReq hits (Count)
system.cpu.dcache.ReadReq.hits::total        92997822                       # number of ReadReq hits (Count)
system.cpu.dcache.ReadReq.misses::cpu.data       529478                       # number of ReadReq misses (Count)
system.cpu.dcache.ReadReq.misses::total        529478                       # number of ReadReq misses (Count)
system.cpu.dcache.ReadReq.missLatency::cpu.data  47072621000                       # number of ReadReq miss ticks (Tick)
system.cpu.dcache.ReadReq.missLatency::total  47072621000                       # number of ReadReq miss ticks (Tick)
system.cpu.dcache.ReadReq.accesses::cpu.data     93527300                       # number of ReadReq accesses(hits+misses) (Count)
system.cpu.dcache.ReadReq.accesses::total     93527300                       # number of ReadReq accesses(hits+misses) (Count)
system.cpu.dcache.ReadReq.missRate::cpu.data     0.005661                       # miss rate for ReadReq accesses (Ratio)
system.cpu.dcache.ReadReq.missRate::total     0.005661                       # miss rate for ReadReq accesses (Ratio)
system.cpu.dcache.ReadReq.avgMissLatency::cpu.data 88903.827921                       # average ReadReq miss latency ((Tick/Count))
system.cpu.dcache.ReadReq.avgMissLatency::total 88903.827921                       # average ReadReq miss latency ((Tick/Count))
system.cpu.dcache.ReadReq.mshrMisses::cpu.data       529478                       # number of ReadReq MSHR misses (Count)
system.cpu.dcache.ReadReq.mshrMisses::total       529478                       # number of ReadReq MSHR misses (Count)
system.cpu.dcache.ReadReq.mshrMissLatency::cpu.data  44954709000                       # number of ReadReq MSHR miss ticks (Tick)
system.cpu.dcache.ReadReq.mshrMissLatency::total  44954709000                       # number of ReadReq MSHR miss ticks (Tick)
system.cpu.dcache.ReadReq.mshrMissRate::cpu.data     0.005661                       # mshr miss rate for ReadReq accesses (Ratio)
system.cpu.dcache.ReadReq.mshrMissRate::total     0.005661                       # mshr miss rate for ReadReq accesses (Ratio)
system.cpu.dcache.ReadReq.avgMshrMissLatency::cpu.data 84903.827921                       # average ReadReq mshr miss latency ((Tick/Count))
system.cpu.dcache.ReadReq.avgMshrMissLatency::total 84903.827921                       # average ReadReq mshr miss latency ((Tick/Count))
system.cpu.dcache.WriteReq.hits::cpu.data     29104867                       # number of WriteReq hits (Count)
system.cpu.dcache.WriteReq.hits::total       29104867                       # number of WriteReq hits (Count)
system.cpu.dcache.WriteReq.misses::cpu.data       411422                       # number of WriteReq misses (Count)
system.cpu.dcache.WriteReq.misses::total       411422                       # number of WriteReq misses (Count)
system.cpu.dcache.WriteReq.missLatency::cpu.data  33677098000                       # number of WriteReq miss ticks (Tick)
system.cpu.dcache.WriteReq.missLatency::total  33677098000                       # number of WriteReq miss ticks (Tick)
system.cpu.dcache.WriteReq.accesses::cpu.data     29516289                       # number of WriteReq accesses(hits+misses) (Count)
system.cpu.dcache.WriteReq.accesses::total     29516289                       # number of WriteReq accesses(hits+misses) (Count)
system.cpu.dcache.WriteReq.missRate::cpu.data     0.013939                       # miss rate for WriteReq accesses (Ratio)
system.cpu.dcache.WriteReq.missRate::total     0.013939                       # miss rate for WriteReq accesses (Ratio)
system.cpu.dcache.WriteReq.avgMissLatency::cpu.data 81855.365051                       # average WriteReq miss latency ((Tick/Count))
system.cpu.dcache.WriteReq.avgMissLatency::total 81855.365051                       # average WriteReq miss latency ((Tick/Count))
system.cpu.dcache.WriteReq.mshrMisses::cpu.data       411422                       # number of WriteReq MSHR misses (Count)
system.cpu.dcache.WriteReq.mshrMisses::total       411422                       # number of WriteReq MSHR misses (Count)
system.cpu.dcache.WriteReq.mshrMissLatency::cpu.data  32031410000                       # number of WriteReq MSHR miss ticks (Tick)
system.cpu.dcache.WriteReq.mshrMissLatency::total  32031410000                       # number of WriteReq MSHR miss ticks (Tick)
system.cpu.dcache.WriteReq.mshrMissRate::cpu.data     0.013939                       # mshr miss rate for WriteReq accesses (Ratio)
system.cpu.dcache.WriteReq.mshrMissRate::total     0.013939                       # mshr miss rate for WriteReq accesses (Ratio)
system.cpu.dcache.WriteReq.avgMshrMissLatency::cpu.data 77855.365051                       # average WriteReq mshr miss latency ((Tick/Count))
system.cpu.dcache.WriteReq.avgMshrMissLatency::total 77855.365051                       # average WriteReq mshr miss latency ((Tick/Count))
system.cpu.dcache.power_state.pwrStateResidencyTicks::UNDEFINED 1923710740000                       # Cumulative time (in ticks) in various power states (Tick)
system.cpu.dcache.tags.tagsInUse            31.999889                       # Average ticks per tags in use ((Tick/Count))
system.cpu.dcache.tags.totalRefs            123043589                       # Total number of references to valid blocks. (Count)
system.cpu.dcache.tags.sampledRefs             907607                       # Sample count of references to valid blocks. (Count)
system.cpu.dcache.tags.avgRefs             135.569238                       # Average number of references to valid blocks. ((Count/Count))
system.cpu.dcache.tags.warmupTick              358000                       # The tick when the warmup percentage was hit. (Tick)
system.cpu.dcache.tags.occupancies::cpu.data    31.999889                       # Average occupied blocks per tick, per requestor ((Count/Tick))
system.cpu.dcache.tags.avgOccs::cpu.data     0.999997                       # Average percentage of cache occupancy ((Ratio/Tick))
system.cpu.dcache.tags.avgOccs::total        0.999997                       # Average percentage of cache occupancy ((Ratio/Tick))
system.cpu.dcache.tags.occupanciesTaskId::1024           32                       # Occupied blocks per task id (Count)
system.cpu.dcache.tags.ageTaskId_1024::0           18                       # Occupied blocks per task id, per block age (Count)
system.cpu.dcache.tags.ageTaskId_1024::1           14                       # Occupied blocks per task id, per block age (Count)
system.cpu.dcache.tags.ratioOccsTaskId::1024            1                       # Ratio of occupied blocks and all blocks, per task id (Ratio)
system.cpu.dcache.tags.tagAccesses         1969605031                       # Number of tag accesses (Count)
system.cpu.dcache.tags.dataAccesses        1969605031                       # Number of data accesses (Count)
system.cpu.dcache.tags.power_state.pwrStateResidencyTicks::UNDEFINED 1923710740000                       # Cumulative time (in ticks) in various power states (Tick)
system.cpu.exec_context.thread_0.numInsts    338594450                       # Number of instructions committed (Count)
system.cpu.exec_context.thread_0.numOps     338594450                       # Number of ops (including micro ops) committed (Count)
system.cpu.exec_context.thread_0.numIntAluAccesses    337591617                       # Number of integer alu accesses (Count)
system.cpu.exec_context.thread_0.numFpAluAccesses           18                       # Number of float alu accesses (Count)
system.cpu.exec_context.thread_0.numVecAluAccesses            0                       # Number of vector alu accesses (Count)
system.cpu.exec_context.thread_0.numCallsReturns      1500244                       # Number of times a function call or return occured (Count)
system.cpu.exec_context.thread_0.numCondCtrlInsts     16494644                       # Number of instructions that are conditional controls (Count)
system.cpu.exec_context.thread_0.numIntInsts    337591617                       # Number of integer instructions (Count)
system.cpu.exec_context.thread_0.numFpInsts           18                       # Number of float instructions (Count)
system.cpu.exec_context.thread_0.numVecInsts            0                       # Number of vector instructions (Count)
system.cpu.exec_context.thread_0.numIntRegReads    493586797                       # Number of times the integer registers were read (Count)
system.cpu.exec_context.thread_0.numIntRegWrites    323578361                       # Number of times the integer registers were written (Count)
system.cpu.exec_context.thread_0.numFpRegReads           18                       # Number of times the floating registers were read (Count)
system.cpu.exec_context.thread_0.numFpRegWrites            0                       # Number of times the floating registers were written (Count)
system.cpu.exec_context.thread_0.numVecRegReads            0                       # Number of times the vector registers were read (Count)
system.cpu.exec_context.thread_0.numVecRegWrites            0                       # Number of times the vector registers were written (Count)
system.cpu.exec_context.thread_0.numVecPredRegReads            0                       # Number of times the predicate registers were read (Count)
system.cpu.exec_context.thread_0.numVecPredRegWrites            0                       # Number of times the predicate registers were written (Count)
system.cpu.exec_context.thread_0.numMiscRegReads            0                       # Number of times the Misc registers were read (Count)
system.cpu.exec_context.thread_0.numMiscRegWrites            0                       # Number of times the Misc registers were written (Count)
system.cpu.exec_context.thread_0.numMemRefs    123044099                       # Number of memory refs (Count)
system.cpu.exec_context.thread_0.numLoadInsts     93527300                       # Number of load instructions (Count)
system.cpu.exec_context.thread_0.numStoreInsts     29516799                       # Number of store instructions (Count)
system.cpu.exec_context.thread_0.numIdleCycles     0.001000                       # Number of idle cycles (Cycle)
system.cpu.exec_context.thread_0.numBusyCycles 1923710739.999000                       # Number of busy cycles (Cycle)
system.cpu.exec_context.thread_0.notIdleFraction     1.000000                       # Percentage of non-idle cycles (Ratio)
system.cpu.exec_context.thread_0.idleFraction     0.000000                       # Percentage of idle cycles (Ratio)
system.cpu.exec_context.thread_0.numBranches     17998143                       # Number of branches fetched (Count)
system.cpu.exec_context.thread_0.statExecutedInstType::No_OpClass            0      0.00%      0.00% # Class of executed instruction. (Count)
system.cpu.exec_context.thread_0.statExecutedInstType::IntAlu    215550870     63.66%     63.66% # Class of executed instruction. (Count)
system.cpu.exec_context.thread_0.statExecutedInstType::IntMult            0      0.00%     63.66% # Class of executed instruction. (Count)
system.cpu.exec_context.thread_0.statExecutedInstType::IntDiv            0      0.00%     63.66% # Class of executed instruction. (Count)
system.cpu.exec_context.thread_0.statExecutedInstType::FloatAdd            0      0.00%     63.66% # Class of executed instruction. (Count)
system.cpu.exec_context.thread_0.statExecutedInstType::FloatCmp            0      0.00%     63.66% # Class of executed instruction. (Count)
system.cpu.exec_context.thread_0.statExecutedInstType::FloatCvt            0      0.00%     63.66% # Class of executed instruction. (Count)
system.cpu.exec_context.thread_0.statExecutedInstType::FloatMult            0      0.00%     63.66% # Class of executed instruction. (Count)
system.cpu.exec_context.thread_0.statExecutedInstType::FloatMultAcc            0      0.00%     63.66% # Class of executed instruction. (Count)
system.cpu.exec_context.thread_0.statExecutedInstType::FloatDiv            0      0.00%     63.66% # Class of executed instruction. (Count)
system.cpu.exec_context.thread_0.statExecutedInstType::FloatMisc            0      0.00%     63.66% # Class of executed instruction. (Count)
system.cpu.exec_context.thread_0.statExecutedInstType::FloatSqrt            0      0.00%     63.66% # Class of executed instruction. (Count)
system.cpu.exec_context.thread_0.statExecutedInstType::SimdAdd            0      0.00%     63.66% # Class of executed instruction. (Count)
system.cpu.exec_context.thread_0.statExecutedInstType::SimdAddAcc            0      0.00%     63.66% # Class of executed instruction. (Count)
system.cpu.exec_context.thread_0.statExecutedInstType::SimdAlu            0      0.00%     63.66% # Class of executed instruction. (Count)
system.cpu.exec_context.thread_0.statExecutedInstType::SimdCmp            0      0.00%     63.66% # Class of executed instruction. (Count)
system.cpu.exec_context.thread_0.statExecutedInstType::SimdCvt            0      0.00%     63.66% # Class of executed instruction. (Count)
system.cpu.exec_context.thread_0.statExecutedInstType::SimdMisc            0      0.00%     63.66% # Class of executed instruction. (Count)
system.cpu.exec_context.thread_0.statExecutedInstType::SimdMult            0      0.00%     63.66% # Class of executed instruction. (Count)
system.cpu.exec_context.thread_0.statExecutedInstType::SimdMultAcc            0      0.00%     63.66% # Class of executed instruction. (Count)
system.cpu.exec_context.thread_0.statExecutedInstType::SimdShift            0      0.00%     63.66% # Class of executed instruction. (Count)
system.cpu.exec_context.thread_0.statExecutedInstType::SimdShiftAcc            0      0.00%     63.66% # Class of executed instruction. (Count)
system.cpu.exec_context.thread_0.statExecutedInstType::SimdDiv            0      0.00%     63.66% # Class of executed instruction. (Count)
system.cpu.exec_context.thread_0.statExecutedInstType::SimdSqrt            0      0.00%     63.66% # Class of executed instruction. (Count)
system.cpu.exec_context.thread_0.statExecutedInstType::SimdFloatAdd            0      0.00%     63.66% # Class of executed instruction. (Count)
system.cpu.exec_context.thread_0.statExecutedInstType::SimdFloatAlu            0      0.00%     63.66% # Class of executed instruction. (Count)
system.cpu.exec_context.thread_0.statExecutedInstType::SimdFloatCmp            0      0.00%     63.66% # Class of executed instruction. (Count)
system.cpu.exec_context.thread_0.statExecutedInstType::SimdFloatCvt            0      0.00%     63.66% # Class of executed instruction. (Count)
system.cpu.exec_context.thread_0.statExecutedInstType::SimdFloatDiv            0      0.00%     63.66% # Class of executed instruction. (Count)
system.cpu.exec_context.thread_0.statExecutedInstType::SimdFloatMisc            0      0.00%     63.66% # Class of executed instruction. (Count)
system.cpu.exec_context.thread_0.statExecutedInstType::SimdFloatMult            0      0.00%     63.66% # Class of executed instruction. (Count)
system.cpu.exec_context.thread_0.statExecutedInstType::SimdFloatMultAcc            0      0.00%     63.66% # Class of executed instruction. (Count)
system.cpu.exec_context.thread_0.statExecutedInstType::SimdFloatSqrt            0      0.00%     63.66% # Class of executed instruction. (Count)
system.cpu.exec_context.thread_0.statExecutedInstType::SimdReduceAdd            0      0.00%     63.66% # Class of executed instruction. (Count)
system.cpu.exec_context.thread_0.statExecutedInstType::SimdReduceAlu            0      0.00%     63.66% # Class of executed instruction. (Count)
system.cpu.exec_context.thread_0.statExecutedInstType::SimdReduceCmp            0      0.00%     63.66% # Class of executed instruction. (Count)
system.cpu.exec_context.thread_0.statExecutedInstType::SimdFloatReduceAdd            0      0.00%     63.66% # Class of executed instruction. (Count)
system.cpu.exec_context.thread_0.statExecutedInstType::SimdFloatReduceCmp            0      0.00%     63.66% # Class of executed instruction. (Count)
system.cpu.exec_context.thread_0.statExecutedInstType::SimdAes            0      0.00%     63.66% # Class of executed instruction. (Count)
system.cpu.exec_context.thread_0.statExecutedInstType::SimdAesMix            0      0.00%     63.66% # Class of executed instruction. (Count)
system.cpu.exec_context.thread_0.statExecutedInstType::SimdSha1Hash            0      0.00%     63.66% # Class of executed instruction. (Count)
system.cpu.exec_context.thread_0.statExecutedInstType::SimdSha1Hash2            0      0.00%     63.66% # Class of executed instruction. (Count)
system.cpu.exec_context.thread_0.statExecutedInstType::SimdSha256Hash            0      0.00%     63.66% # Class of executed instruction. (Count)
system.cpu.exec_context.thread_0.statExecutedInstType::SimdSha256Hash2            0      0.00%     63.66% # Class of executed instruction. (Count)
system.cpu.exec_context.thread_0.statExecutedInstType::SimdShaSigma2            0      0.00%     63.66% # Class of executed instruction. (Count)
system.cpu.exec_context.thread_0.statExecutedInstType::SimdShaSigma3            0      0.00%     63.66% # Class of executed instruction. (Count)
system.cpu.exec_context.thread_0.statExecutedInstType::SimdPredAlu            0      0.00%     63.66% # Class of executed instruction. (Count)
system.cpu.exec_context.thread_0.statExecutedInstType::MemRead     93527300     27.62%     91.28% # Class of executed instruction. (Count)
system.cpu.exec_context.thread_0.statExecutedInstType::MemWrite     29516781      8.72%    100.00% # Class of executed instruction. (Count)
system.cpu.exec_context.thread_0.statExecutedInstType::FloatMemRead            0      0.00%    100.00% # Class of executed instruction. (Count)
system.cpu.exec_context.thread_0.statExecutedInstType::FloatMemWrite           18      0.00%    100.00% # Class of executed instruction. (Count)
system.cpu.exec_context.thread_0.statExecutedInstType::IprAccess            0      0.00%    100.00% # Class of executed instruction. (Count)
system.cpu.exec_context.thread_0.statExecutedInstType::InstPrefetch            0      0.00%    100.00% # Class of executed instruction. (Count)
system.cpu.exec_context.thread_0.statExecutedInstType::total    338594969                       # Class of executed instruction. (Count)
system.cpu.icache.demandHits::cpu.inst      338593188                       # number of demand (read+write) hits (Count)
system.cpu.icache.demandHits::total         338593188                       # number of demand (read+write) hits (Count)
system.cpu.icache.overallHits::cpu.inst     338593188                       # number of overall hits (Count)
system.cpu.icache.overallHits::total        338593188                       # number of overall hits (Count)
system.cpu.icache.demandMisses::cpu.inst         1781                       # number of demand (read+write) misses (Count)
system.cpu.icache.demandMisses::total            1781                       # number of demand (read+write) misses (Count)
system.cpu.icache.overallMisses::cpu.inst         1781                       # number of overall misses (Count)
system.cpu.icache.overallMisses::total           1781                       # number of overall misses (Count)
system.cpu.icache.demandMissLatency::cpu.inst    177513000                       # number of demand (read+write) miss ticks (Tick)
system.cpu.icache.demandMissLatency::total    177513000                       # number of demand (read+write) miss ticks (Tick)
system.cpu.icache.overallMissLatency::cpu.inst    177513000                       # number of overall miss ticks (Tick)
system.cpu.icache.overallMissLatency::total    177513000                       # number of overall miss ticks (Tick)
system.cpu.icache.demandAccesses::cpu.inst    338594969                       # number of demand (read+write) accesses (Count)
system.cpu.icache.demandAccesses::total     338594969                       # number of demand (read+write) accesses (Count)
system.cpu.icache.overallAccesses::cpu.inst    338594969                       # number of overall (read+write) accesses (Count)
system.cpu.icache.overallAccesses::total    338594969                       # number of overall (read+write) accesses (Count)
system.cpu.icache.demandMissRate::cpu.inst     0.000005                       # miss rate for demand accesses (Ratio)
system.cpu.icache.demandMissRate::total      0.000005                       # miss rate for demand accesses (Ratio)
system.cpu.icache.overallMissRate::cpu.inst     0.000005                       # miss rate for overall accesses (Ratio)
system.cpu.icache.overallMissRate::total     0.000005                       # miss rate for overall accesses (Ratio)
system.cpu.icache.demandAvgMissLatency::cpu.inst 99670.409882                       # average overall miss latency ((Cycle/Count))
system.cpu.icache.demandAvgMissLatency::total 99670.409882                       # average overall miss latency ((Cycle/Count))
system.cpu.icache.overallAvgMissLatency::cpu.inst 99670.409882                       # average overall miss latency ((Cycle/Count))
system.cpu.icache.overallAvgMissLatency::total 99670.409882                       # average overall miss latency ((Cycle/Count))
system.cpu.icache.blockedCycles::no_mshrs            0                       # number of cycles access was blocked (Cycle)
system.cpu.icache.blockedCycles::no_targets            0                       # number of cycles access was blocked (Cycle)
system.cpu.icache.blockedCauses::no_mshrs            0                       # number of times access was blocked (Count)
system.cpu.icache.blockedCauses::no_targets            0                       # number of times access was blocked (Count)
system.cpu.icache.avgBlocked::no_mshrs            nan                       # average number of cycles each access was blocked ((Cycle/Count))
system.cpu.icache.avgBlocked::no_targets          nan                       # average number of cycles each access was blocked ((Cycle/Count))
system.cpu.icache.demandMshrMisses::cpu.inst         1781                       # number of demand (read+write) MSHR misses (Count)
system.cpu.icache.demandMshrMisses::total         1781                       # number of demand (read+write) MSHR misses (Count)
system.cpu.icache.overallMshrMisses::cpu.inst         1781                       # number of overall MSHR misses (Count)
system.cpu.icache.overallMshrMisses::total         1781                       # number of overall MSHR misses (Count)
system.cpu.icache.demandMshrMissLatency::cpu.inst    170389000                       # number of demand (read+write) MSHR miss ticks (Tick)
system.cpu.icache.demandMshrMissLatency::total    170389000                       # number of demand (read+write) MSHR miss ticks (Tick)
system.cpu.icache.overallMshrMissLatency::cpu.inst    170389000                       # number of overall MSHR miss ticks (Tick)
system.cpu.icache.overallMshrMissLatency::total    170389000                       # number of overall MSHR miss ticks (Tick)
system.cpu.icache.demandMshrMissRate::cpu.inst     0.000005                       # mshr miss ratio for demand accesses (Ratio)
system.cpu.icache.demandMshrMissRate::total     0.000005                       # mshr miss ratio for demand accesses (Ratio)
system.cpu.icache.overallMshrMissRate::cpu.inst     0.000005                       # mshr miss ratio for overall accesses (Ratio)
system.cpu.icache.overallMshrMissRate::total     0.000005                       # mshr miss ratio for overall accesses (Ratio)
system.cpu.icache.demandAvgMshrMissLatency::cpu.inst 95670.409882                       # average overall mshr miss latency ((Cycle/Count))
system.cpu.icache.demandAvgMshrMissLatency::total 95670.409882                       # average overall mshr miss latency ((Cycle/Count))
system.cpu.icache.overallAvgMshrMissLatency::cpu.inst 95670.409882                       # average overall mshr miss latency ((Cycle/Count))
system.cpu.icache.overallAvgMshrMissLatency::total 95670.409882                       # average overall mshr miss latency ((Cycle/Count))
system.cpu.icache.replacements                   1765                       # number of replacements (Count)
system.cpu.icache.ReadReq.hits::cpu.inst    338593188                       # number of ReadReq hits (Count)
system.cpu.icache.ReadReq.hits::total       338593188                       # number of ReadReq hits (Count)
system.cpu.icache.ReadReq.misses::cpu.inst         1781                       # number of ReadReq misses (Count)
system.cpu.icache.ReadReq.misses::total          1781                       # number of ReadReq misses (Count)
system.cpu.icache.ReadReq.missLatency::cpu.inst    177513000                       # number of ReadReq miss ticks (Tick)
system.cpu.icache.ReadReq.missLatency::total    177513000                       # number of ReadReq miss ticks (Tick)
system.cpu.icache.ReadReq.accesses::cpu.inst    338594969                       # number of ReadReq accesses(hits+misses) (Count)
system.cpu.icache.ReadReq.accesses::total    338594969                       # number of ReadReq accesses(hits+misses) (Count)
system.cpu.icache.ReadReq.missRate::cpu.inst     0.000005                       # miss rate for ReadReq accesses (Ratio)
system.cpu.icache.ReadReq.missRate::total     0.000005                       # miss rate for ReadReq accesses (Ratio)
system.cpu.icache.ReadReq.avgMissLatency::cpu.inst 99670.409882                       # average ReadReq miss latency ((Tick/Count))
system.cpu.icache.ReadReq.avgMissLatency::total 99670.409882                       # average ReadReq miss latency ((Tick/Count))
system.cpu.icache.ReadReq.mshrMisses::cpu.inst         1781                       # number of ReadReq MSHR misses (Count)
system.cpu.icache.ReadReq.mshrMisses::total         1781                       # number of ReadReq MSHR misses (Count)
system.cpu.icache.ReadReq.mshrMissLatency::cpu.inst    170389000                       # number of ReadReq MSHR miss ticks (Tick)
system.cpu.icache.ReadReq.mshrMissLatency::total    170389000                       # number of ReadReq MSHR miss ticks (Tick)
system.cpu.icache.ReadReq.mshrMissRate::cpu.inst     0.000005                       # mshr miss rate for ReadReq accesses (Ratio)
system.cpu.icache.ReadReq.mshrMissRate::total     0.000005                       # mshr miss rate for ReadReq accesses (Ratio)
system.cpu.icache.ReadReq.avgMshrMissLatency::cpu.inst 95670.409882                       # average ReadReq mshr miss latency ((Tick/Count))
system.cpu.icache.ReadReq.avgMshrMissLatency::total 95670.409882                       # average ReadReq mshr miss latency ((Tick/Count))
system.cpu.icache.power_state.pwrStateResidencyTicks::UNDEFINED 1923710740000                       # Cumulative time (in ticks) in various power states (Tick)
system.cpu.icache.tags.tagsInUse            15.999967                       # Average ticks per tags in use ((Tick/Count))
system.cpu.icache.tags.totalRefs            338594969                       # Total number of references to valid blocks. (Count)
system.cpu.icache.tags.sampledRefs               1781                       # Sample count of references to valid blocks. (Count)
system.cpu.icache.tags.avgRefs           190115.086468                       # Average number of references to valid blocks. ((Count/Count))
system.cpu.icache.tags.warmupTick              171000                       # The tick when the warmup percentage was hit. (Tick)
system.cpu.icache.tags.occupancies::cpu.inst    15.999967                       # Average occupied blocks per tick, per requestor ((Count/Tick))
system.cpu.icache.tags.avgOccs::cpu.inst     0.999998                       # Average percentage of cache occupancy ((Ratio/Tick))
system.cpu.icache.tags.avgOccs::total        0.999998                       # Average percentage of cache occupancy ((Ratio/Tick))
system.cpu.icache.tags.occupanciesTaskId::1024           16                       # Occupied blocks per task id (Count)
system.cpu.icache.tags.ageTaskId_1024::0           16                       # Occupied blocks per task id, per block age (Count)
system.cpu.icache.tags.ratioOccsTaskId::1024            1                       # Ratio of occupied blocks and all blocks, per task id (Ratio)
system.cpu.icache.tags.tagAccesses         5417521285                       # Number of tag accesses (Count)
system.cpu.icache.tags.dataAccesses        5417521285                       # Number of data accesses (Count)
system.cpu.icache.tags.power_state.pwrStateResidencyTicks::UNDEFINED 1923710740000                       # Cumulative time (in ticks) in various power states (Tick)
system.cpu.power_state.pwrStateResidencyTicks::ON 1923710740000                       # Cumulative time (in ticks) in various power states (Tick)
system.cpu.thread_0.numInsts                        0                       # Number of Instructions committed (Count)
system.cpu.thread_0.numOps                          0                       # Number of Ops committed (Count)
system.cpu.thread_0.numMemRefs                      0                       # Number of Memory References (Count)
system.cpu.workload.numSyscalls                     9                       # Number of system calls (Count)
system.l2bus.transDist::ReadResp               531259                       # Transaction distribution (Count)
system.l2bus.transDist::WritebackDirty        1238047                       # Transaction distribution (Count)
system.l2bus.transDist::CleanEvict             531343                       # Transaction distribution (Count)
system.l2bus.transDist::UpgradeReq              33293                       # Transaction distribution (Count)
system.l2bus.transDist::UpgradeResp             33293                       # Transaction distribution (Count)
system.l2bus.transDist::ReadExReq              378129                       # Transaction distribution (Count)
system.l2bus.transDist::ReadExResp             378129                       # Transaction distribution (Count)
system.l2bus.transDist::ReadSharedReq          531259                       # Transaction distribution (Count)
system.l2bus.pktCount_system.cpu.icache.mem_side_port::system.l2cache.cpu_side_port         5327                       # Packet count per connected requestor and responder (Count)
system.l2bus.pktCount_system.cpu.dcache.mem_side_port::system.l2cache.cpu_side_port      2789375                       # Packet count per connected requestor and responder (Count)
system.l2bus.pktCount::total                  2794702                       # Packet count per connected requestor and responder (Count)
system.l2bus.pktSize_system.cpu.icache.mem_side_port::system.l2cache.cpu_side_port       113984                       # Cumulative packet size per connected requestor and responder (Byte)
system.l2bus.pktSize_system.cpu.dcache.mem_side_port::system.l2cache.cpu_side_port     86460224                       # Cumulative packet size per connected requestor and responder (Byte)
system.l2bus.pktSize::total                  86574208                       # Cumulative packet size per connected requestor and responder (Byte)
system.l2bus.snoops                            860050                       # Total snoops (Count)
system.l2bus.snoopTraffic                    50861632                       # Total snoop traffic (Byte)
system.l2bus.snoopFanout::samples             1802731                       # Request fanout histogram (Count)
system.l2bus.snoopFanout::mean               0.001407                       # Request fanout histogram (Count)
system.l2bus.snoopFanout::stdev              0.037488                       # Request fanout histogram (Count)
system.l2bus.snoopFanout::underflows                0      0.00%      0.00% # Request fanout histogram (Count)
system.l2bus.snoopFanout::0                   1800194     99.86%     99.86% # Request fanout histogram (Count)
system.l2bus.snoopFanout::1                      2537      0.14%    100.00% # Request fanout histogram (Count)
system.l2bus.snoopFanout::2                         0      0.00%    100.00% # Request fanout histogram (Count)
system.l2bus.snoopFanout::overflows                 0      0.00%    100.00% # Request fanout histogram (Count)
system.l2bus.snoopFanout::min_value                 0                       # Request fanout histogram (Count)
system.l2bus.snoopFanout::max_value                 1                       # Request fanout histogram (Count)
system.l2bus.snoopFanout::total               1802731                       # Request fanout histogram (Count)
system.l2bus.power_state.pwrStateResidencyTicks::UNDEFINED 1923710740000                       # Cumulative time (in ticks) in various power states (Tick)
system.l2bus.reqLayer0.occupancy           2738689000                       # Layer occupancy (ticks) (Tick)
system.l2bus.reqLayer0.utilization                0.0                       # Layer utilization (Ratio)
system.l2bus.respLayer0.occupancy             5343000                       # Layer occupancy (ticks) (Tick)
system.l2bus.respLayer0.utilization               0.0                       # Layer utilization (Ratio)
system.l2bus.respLayer1.occupancy          2756114000                       # Layer occupancy (ticks) (Tick)
system.l2bus.respLayer1.utilization               0.0                       # Layer utilization (Ratio)
system.l2bus.snoop_filter.totRequests         1852021                       # Total number of requests made to the snoop filter. (Count)
system.l2bus.snoop_filter.hitSingleRequests       942633                       # Number of requests hitting in the snoop filter with a single holder of the requested data. (Count)
system.l2bus.snoop_filter.hitMultiRequests            2                       # Number of requests hitting in the snoop filter with multiple (>1) holders of the requested data. (Count)
system.l2bus.snoop_filter.totSnoops              2535                       # Total number of snoops made to the snoop filter. (Count)
system.l2bus.snoop_filter.hitSingleSnoops         2535                       # Number of snoops hitting in the snoop filter with a single holder of the requested data. (Count)
system.l2bus.snoop_filter.hitMultiSnoops            0                       # Number of snoops hitting in the snoop filter with multiple (>1) holders of the requested data. (Count)
system.l2cache.demandHits::cpu.inst               148                       # number of demand (read+write) hits (Count)
system.l2cache.demandHits::cpu.data             50041                       # number of demand (read+write) hits (Count)
system.l2cache.demandHits::total                50189                       # number of demand (read+write) hits (Count)
system.l2cache.overallHits::cpu.inst              148                       # number of overall hits (Count)
system.l2cache.overallHits::cpu.data            50041                       # number of overall hits (Count)
system.l2cache.overallHits::total               50189                       # number of overall hits (Count)
system.l2cache.demandMisses::cpu.inst            1633                       # number of demand (read+write) misses (Count)
system.l2cache.demandMisses::cpu.data          857566                       # number of demand (read+write) misses (Count)
system.l2cache.demandMisses::total             859199                       # number of demand (read+write) misses (Count)
system.l2cache.overallMisses::cpu.inst           1633                       # number of overall misses (Count)
system.l2cache.overallMisses::cpu.data         857566                       # number of overall misses (Count)
system.l2cache.overallMisses::total            859199                       # number of overall misses (Count)
system.l2cache.demandMissLatency::cpu.inst    158968000                       # number of demand (read+write) miss ticks (Tick)
system.l2cache.demandMissLatency::cpu.data  70864933000                       # number of demand (read+write) miss ticks (Tick)
system.l2cache.demandMissLatency::total   71023901000                       # number of demand (read+write) miss ticks (Tick)
system.l2cache.overallMissLatency::cpu.inst    158968000                       # number of overall miss ticks (Tick)
system.l2cache.overallMissLatency::cpu.data  70864933000                       # number of overall miss ticks (Tick)
system.l2cache.overallMissLatency::total  71023901000                       # number of overall miss ticks (Tick)
system.l2cache.demandAccesses::cpu.inst          1781                       # number of demand (read+write) accesses (Count)
system.l2cache.demandAccesses::cpu.data        907607                       # number of demand (read+write) accesses (Count)
system.l2cache.demandAccesses::total           909388                       # number of demand (read+write) accesses (Count)
system.l2cache.overallAccesses::cpu.inst         1781                       # number of overall (read+write) accesses (Count)
system.l2cache.overallAccesses::cpu.data       907607                       # number of overall (read+write) accesses (Count)
system.l2cache.overallAccesses::total          909388                       # number of overall (read+write) accesses (Count)
system.l2cache.demandMissRate::cpu.inst      0.916901                       # miss rate for demand accesses (Ratio)
system.l2cache.demandMissRate::cpu.data      0.944865                       # miss rate for demand accesses (Ratio)
system.l2cache.demandMissRate::total         0.944810                       # miss rate for demand accesses (Ratio)
system.l2cache.overallMissRate::cpu.inst     0.916901                       # miss rate for overall accesses (Ratio)
system.l2cache.overallMissRate::cpu.data     0.944865                       # miss rate for overall accesses (Ratio)
system.l2cache.overallMissRate::total        0.944810                       # miss rate for overall accesses (Ratio)
system.l2cache.demandAvgMissLatency::cpu.inst 97347.213717                       # average overall miss latency ((Cycle/Count))
system.l2cache.demandAvgMissLatency::cpu.data 82634.961041                       # average overall miss latency ((Cycle/Count))
system.l2cache.demandAvgMissLatency::total 82662.923258                       # average overall miss latency ((Cycle/Count))
system.l2cache.overallAvgMissLatency::cpu.inst 97347.213717                       # average overall miss latency ((Cycle/Count))
system.l2cache.overallAvgMissLatency::cpu.data 82634.961041                       # average overall miss latency ((Cycle/Count))
system.l2cache.overallAvgMissLatency::total 82662.923258                       # average overall miss latency ((Cycle/Count))
system.l2cache.blockedCycles::no_mshrs              0                       # number of cycles access was blocked (Cycle)
system.l2cache.blockedCycles::no_targets            0                       # number of cycles access was blocked (Cycle)
system.l2cache.blockedCauses::no_mshrs              0                       # number of times access was blocked (Count)
system.l2cache.blockedCauses::no_targets            0                       # number of times access was blocked (Count)
system.l2cache.avgBlocked::no_mshrs               nan                       # average number of cycles each access was blocked ((Cycle/Count))
system.l2cache.avgBlocked::no_targets             nan                       # average number of cycles each access was blocked ((Cycle/Count))
system.l2cache.writebacks::writebacks          794713                       # number of writebacks (Count)
system.l2cache.writebacks::total               794713                       # number of writebacks (Count)
system.l2cache.demandMshrMisses::cpu.inst         1633                       # number of demand (read+write) MSHR misses (Count)
system.l2cache.demandMshrMisses::cpu.data       857566                       # number of demand (read+write) MSHR misses (Count)
system.l2cache.demandMshrMisses::total         859199                       # number of demand (read+write) MSHR misses (Count)
system.l2cache.overallMshrMisses::cpu.inst         1633                       # number of overall MSHR misses (Count)
system.l2cache.overallMshrMisses::cpu.data       857566                       # number of overall MSHR misses (Count)
system.l2cache.overallMshrMisses::total        859199                       # number of overall MSHR misses (Count)
system.l2cache.demandMshrMissLatency::cpu.inst    132840000                       # number of demand (read+write) MSHR miss ticks (Tick)
system.l2cache.demandMshrMissLatency::cpu.data  57143877000                       # number of demand (read+write) MSHR miss ticks (Tick)
system.l2cache.demandMshrMissLatency::total  57276717000                       # number of demand (read+write) MSHR miss ticks (Tick)
system.l2cache.overallMshrMissLatency::cpu.inst    132840000                       # number of overall MSHR miss ticks (Tick)
system.l2cache.overallMshrMissLatency::cpu.data  57143877000                       # number of overall MSHR miss ticks (Tick)
system.l2cache.overallMshrMissLatency::total  57276717000                       # number of overall MSHR miss ticks (Tick)
system.l2cache.demandMshrMissRate::cpu.inst     0.916901                       # mshr miss ratio for demand accesses (Ratio)
system.l2cache.demandMshrMissRate::cpu.data     0.944865                       # mshr miss ratio for demand accesses (Ratio)
system.l2cache.demandMshrMissRate::total     0.944810                       # mshr miss ratio for demand accesses (Ratio)
system.l2cache.overallMshrMissRate::cpu.inst     0.916901                       # mshr miss ratio for overall accesses (Ratio)
system.l2cache.overallMshrMissRate::cpu.data     0.944865                       # mshr miss ratio for overall accesses (Ratio)
system.l2cache.overallMshrMissRate::total     0.944810                       # mshr miss ratio for overall accesses (Ratio)
system.l2cache.demandAvgMshrMissLatency::cpu.inst 81347.213717                       # average overall mshr miss latency ((Cycle/Count))
system.l2cache.demandAvgMshrMissLatency::cpu.data 66634.961041                       # average overall mshr miss latency ((Cycle/Count))
system.l2cache.demandAvgMshrMissLatency::total 66662.923258                       # average overall mshr miss latency ((Cycle/Count))
system.l2cache.overallAvgMshrMissLatency::cpu.inst 81347.213717                       # average overall mshr miss latency ((Cycle/Count))
system.l2cache.overallAvgMshrMissLatency::cpu.data 66634.961041                       # average overall mshr miss latency ((Cycle/Count))
system.l2cache.overallAvgMshrMissLatency::total 66662.923258                       # average overall mshr miss latency ((Cycle/Count))
system.l2cache.replacements                    860006                       # number of replacements (Count)
system.l2cache.CleanEvict.mshrMisses::writebacks         1428                       # number of CleanEvict MSHR misses (Count)
system.l2cache.CleanEvict.mshrMisses::total         1428                       # number of CleanEvict MSHR misses (Count)
system.l2cache.CleanEvict.mshrMissRate::writebacks          inf                       # mshr miss rate for CleanEvict accesses (Ratio)
system.l2cache.CleanEvict.mshrMissRate::total          inf                       # mshr miss rate for CleanEvict accesses (Ratio)
system.l2cache.ReadExReq.hits::cpu.data         18128                       # number of ReadExReq hits (Count)
system.l2cache.ReadExReq.hits::total            18128                       # number of ReadExReq hits (Count)
system.l2cache.ReadExReq.misses::cpu.data       360001                       # number of ReadExReq misses (Count)
system.l2cache.ReadExReq.misses::total         360001                       # number of ReadExReq misses (Count)
system.l2cache.ReadExReq.missLatency::cpu.data  29100143000                       # number of ReadExReq miss ticks (Tick)
system.l2cache.ReadExReq.missLatency::total  29100143000                       # number of ReadExReq miss ticks (Tick)
system.l2cache.ReadExReq.accesses::cpu.data       378129                       # number of ReadExReq accesses(hits+misses) (Count)
system.l2cache.ReadExReq.accesses::total       378129                       # number of ReadExReq accesses(hits+misses) (Count)
system.l2cache.ReadExReq.missRate::cpu.data     0.952059                       # miss rate for ReadExReq accesses (Ratio)
system.l2cache.ReadExReq.missRate::total     0.952059                       # miss rate for ReadExReq accesses (Ratio)
system.l2cache.ReadExReq.avgMissLatency::cpu.data 80833.506018                       # average ReadExReq miss latency ((Tick/Count))
system.l2cache.ReadExReq.avgMissLatency::total 80833.506018                       # average ReadExReq miss latency ((Tick/Count))
system.l2cache.ReadExReq.mshrMisses::cpu.data       360001                       # number of ReadExReq MSHR misses (Count)
system.l2cache.ReadExReq.mshrMisses::total       360001                       # number of ReadExReq MSHR misses (Count)
system.l2cache.ReadExReq.mshrMissLatency::cpu.data  23340127000                       # number of ReadExReq MSHR miss ticks (Tick)
system.l2cache.ReadExReq.mshrMissLatency::total  23340127000                       # number of ReadExReq MSHR miss ticks (Tick)
system.l2cache.ReadExReq.mshrMissRate::cpu.data     0.952059                       # mshr miss rate for ReadExReq accesses (Ratio)
system.l2cache.ReadExReq.mshrMissRate::total     0.952059                       # mshr miss rate for ReadExReq accesses (Ratio)
system.l2cache.ReadExReq.avgMshrMissLatency::cpu.data 64833.506018                       # average ReadExReq mshr miss latency ((Tick/Count))
system.l2cache.ReadExReq.avgMshrMissLatency::total 64833.506018                       # average ReadExReq mshr miss latency ((Tick/Count))
system.l2cache.ReadSharedReq.hits::cpu.inst          148                       # number of ReadSharedReq hits (Count)
system.l2cache.ReadSharedReq.hits::cpu.data        31913                       # number of ReadSharedReq hits (Count)
system.l2cache.ReadSharedReq.hits::total        32061                       # number of ReadSharedReq hits (Count)
system.l2cache.ReadSharedReq.misses::cpu.inst         1633                       # number of ReadSharedReq misses (Count)
system.l2cache.ReadSharedReq.misses::cpu.data       497565                       # number of ReadSharedReq misses (Count)
system.l2cache.ReadSharedReq.misses::total       499198                       # number of ReadSharedReq misses (Count)
system.l2cache.ReadSharedReq.missLatency::cpu.inst    158968000                       # number of ReadSharedReq miss ticks (Tick)
system.l2cache.ReadSharedReq.missLatency::cpu.data  41764790000                       # number of ReadSharedReq miss ticks (Tick)
system.l2cache.ReadSharedReq.missLatency::total  41923758000                       # number of ReadSharedReq miss ticks (Tick)
system.l2cache.ReadSharedReq.accesses::cpu.inst         1781                       # number of ReadSharedReq accesses(hits+misses) (Count)
system.l2cache.ReadSharedReq.accesses::cpu.data       529478                       # number of ReadSharedReq accesses(hits+misses) (Count)
system.l2cache.ReadSharedReq.accesses::total       531259                       # number of ReadSharedReq accesses(hits+misses) (Count)
system.l2cache.ReadSharedReq.missRate::cpu.inst     0.916901                       # miss rate for ReadSharedReq accesses (Ratio)
system.l2cache.ReadSharedReq.missRate::cpu.data     0.939727                       # miss rate for ReadSharedReq accesses (Ratio)
system.l2cache.ReadSharedReq.missRate::total     0.939651                       # miss rate for ReadSharedReq accesses (Ratio)
system.l2cache.ReadSharedReq.avgMissLatency::cpu.inst 97347.213717                       # average ReadSharedReq miss latency ((Tick/Count))
system.l2cache.ReadSharedReq.avgMissLatency::cpu.data 83938.359812                       # average ReadSharedReq miss latency ((Tick/Count))
system.l2cache.ReadSharedReq.avgMissLatency::total 83982.223486                       # average ReadSharedReq miss latency ((Tick/Count))
system.l2cache.ReadSharedReq.mshrMisses::cpu.inst         1633                       # number of ReadSharedReq MSHR misses (Count)
system.l2cache.ReadSharedReq.mshrMisses::cpu.data       497565                       # number of ReadSharedReq MSHR misses (Count)
system.l2cache.ReadSharedReq.mshrMisses::total       499198                       # number of ReadSharedReq MSHR misses (Count)
system.l2cache.ReadSharedReq.mshrMissLatency::cpu.inst    132840000                       # number of ReadSharedReq MSHR miss ticks (Tick)
system.l2cache.ReadSharedReq.mshrMissLatency::cpu.data  33803750000                       # number of ReadSharedReq MSHR miss ticks (Tick)
system.l2cache.ReadSharedReq.mshrMissLatency::total  33936590000                       # number of ReadSharedReq MSHR miss ticks (Tick)
system.l2cache.ReadSharedReq.mshrMissRate::cpu.inst     0.916901                       # mshr miss rate for ReadSharedReq accesses (Ratio)
system.l2cache.ReadSharedReq.mshrMissRate::cpu.data     0.939727                       # mshr miss rate for ReadSharedReq accesses (Ratio)
system.l2cache.ReadSharedReq.mshrMissRate::total     0.939651                       # mshr miss rate for ReadSharedReq accesses (Ratio)
system.l2cache.ReadSharedReq.avgMshrMissLatency::cpu.inst 81347.213717                       # average ReadSharedReq mshr miss latency ((Tick/Count))
system.l2cache.ReadSharedReq.avgMshrMissLatency::cpu.data 67938.359812                       # average ReadSharedReq mshr miss latency ((Tick/Count))
system.l2cache.ReadSharedReq.avgMshrMissLatency::total 67982.223486                       # average ReadSharedReq mshr miss latency ((Tick/Count))
system.l2cache.UpgradeReq.hits::cpu.data        33293                       # number of UpgradeReq hits (Count)
system.l2cache.UpgradeReq.hits::total           33293                       # number of UpgradeReq hits (Count)
system.l2cache.UpgradeReq.accesses::cpu.data        33293                       # number of UpgradeReq accesses(hits+misses) (Count)
system.l2cache.UpgradeReq.accesses::total        33293                       # number of UpgradeReq accesses(hits+misses) (Count)
system.l2cache.WritebackDirty.hits::writebacks       443334                       # number of WritebackDirty hits (Count)
system.l2cache.WritebackDirty.hits::total       443334                       # number of WritebackDirty hits (Count)
system.l2cache.WritebackDirty.accesses::writebacks       443334                       # number of WritebackDirty accesses(hits+misses) (Count)
system.l2cache.WritebackDirty.accesses::total       443334                       # number of WritebackDirty accesses(hits+misses) (Count)
system.l2cache.power_state.pwrStateResidencyTicks::UNDEFINED 1923710740000                       # Cumulative time (in ticks) in various power states (Tick)
system.l2cache.tags.tagsInUse              255.996049                       # Average ticks per tags in use ((Tick/Count))
system.l2cache.tags.totalRefs                 1850591                       # Total number of references to valid blocks. (Count)
system.l2cache.tags.sampledRefs                860262                       # Sample count of references to valid blocks. (Count)
system.l2cache.tags.avgRefs                  2.151195                       # Average number of references to valid blocks. ((Count/Count))
system.l2cache.tags.warmupTick                 154000                       # The tick when the warmup percentage was hit. (Tick)
system.l2cache.tags.occupancies::writebacks     0.099949                       # Average occupied blocks per tick, per requestor ((Count/Tick))
system.l2cache.tags.occupancies::cpu.inst     0.416220                       # Average occupied blocks per tick, per requestor ((Count/Tick))
system.l2cache.tags.occupancies::cpu.data   255.479880                       # Average occupied blocks per tick, per requestor ((Count/Tick))
system.l2cache.tags.avgOccs::writebacks      0.000390                       # Average percentage of cache occupancy ((Ratio/Tick))
system.l2cache.tags.avgOccs::cpu.inst        0.001626                       # Average percentage of cache occupancy ((Ratio/Tick))
system.l2cache.tags.avgOccs::cpu.data        0.997968                       # Average percentage of cache occupancy ((Ratio/Tick))
system.l2cache.tags.avgOccs::total           0.999985                       # Average percentage of cache occupancy ((Ratio/Tick))
system.l2cache.tags.occupanciesTaskId::1024          256                       # Occupied blocks per task id (Count)
system.l2cache.tags.ageTaskId_1024::0              47                       # Occupied blocks per task id, per block age (Count)
system.l2cache.tags.ageTaskId_1024::1             100                       # Occupied blocks per task id, per block age (Count)
system.l2cache.tags.ageTaskId_1024::2             109                       # Occupied blocks per task id, per block age (Count)
system.l2cache.tags.ratioOccsTaskId::1024            1                       # Ratio of occupied blocks and all blocks, per task id (Ratio)
system.l2cache.tags.tagAccesses              30492566                       # Number of tag accesses (Count)
system.l2cache.tags.dataAccesses             30492566                       # Number of data accesses (Count)
system.l2cache.tags.power_state.pwrStateResidencyTicks::UNDEFINED 1923710740000                       # Cumulative time (in ticks) in various power states (Tick)
system.l3bus.transDist::ReadResp               499198                       # Transaction distribution (Count)
system.l3bus.transDist::WritebackDirty         858249                       # Transaction distribution (Count)
system.l3bus.transDist::CleanEvict              80493                       # Transaction distribution (Count)
system.l3bus.transDist::ReadExReq              360001                       # Transaction distribution (Count)
system.l3bus.transDist::ReadExResp             360001                       # Transaction distribution (Count)
system.l3bus.transDist::ReadSharedReq          499198                       # Transaction distribution (Count)
system.l3bus.pktCount_system.l2cache.mem_side_port::system.l3cache.cpu_side_port      2577541                       # Packet count per connected requestor and responder (Count)
system.l3bus.pktSize_system.l2cache.mem_side_port::system.l3cache.cpu_side_port    105850368                       # Cumulative packet size per connected requestor and responder (Byte)
system.l3bus.snoops                             79599                       # Total snoops (Count)
system.l3bus.snoopTraffic                     4066304                       # Total snoop traffic (Byte)
system.l3bus.snoopFanout::samples              938798                       # Request fanout histogram (Count)
system.l3bus.snoopFanout::mean               0.000047                       # Request fanout histogram (Count)
system.l3bus.snoopFanout::stdev              0.006846                       # Request fanout histogram (Count)
system.l3bus.snoopFanout::underflows                0      0.00%      0.00% # Request fanout histogram (Count)
system.l3bus.snoopFanout::0                    938754    100.00%    100.00% # Request fanout histogram (Count)
system.l3bus.snoopFanout::1                        44      0.00%    100.00% # Request fanout histogram (Count)
system.l3bus.snoopFanout::overflows                 0      0.00%    100.00% # Request fanout histogram (Count)
system.l3bus.snoopFanout::min_value                 0                       # Request fanout histogram (Count)
system.l3bus.snoopFanout::max_value                 1                       # Request fanout histogram (Count)
system.l3bus.snoopFanout::total                938798                       # Request fanout histogram (Count)
system.l3bus.power_state.pwrStateResidencyTicks::UNDEFINED 1923710740000                       # Cumulative time (in ticks) in various power states (Tick)
system.l3bus.reqLayer0.occupancy           3307768000                       # Layer occupancy (ticks) (Tick)
system.l3bus.reqLayer0.utilization                0.0                       # Layer utilization (Ratio)
system.l3bus.respLayer0.occupancy          2577597000                       # Layer occupancy (ticks) (Tick)
system.l3bus.respLayer0.utilization               0.0                       # Layer utilization (Ratio)
system.l3bus.snoop_filter.totRequests         1718342                       # Total number of requests made to the snoop filter. (Count)
system.l3bus.snoop_filter.hitSingleRequests       859143                       # Number of requests hitting in the snoop filter with a single holder of the requested data. (Count)
system.l3bus.snoop_filter.hitMultiRequests            0                       # Number of requests hitting in the snoop filter with multiple (>1) holders of the requested data. (Count)
system.l3bus.snoop_filter.totSnoops                44                       # Total number of snoops made to the snoop filter. (Count)
system.l3bus.snoop_filter.hitSingleSnoops           44                       # Number of snoops hitting in the snoop filter with a single holder of the requested data. (Count)
system.l3bus.snoop_filter.hitMultiSnoops            0                       # Number of snoops hitting in the snoop filter with multiple (>1) holders of the requested data. (Count)
system.l3cache.demandHits::cpu.inst              1196                       # number of demand (read+write) hits (Count)
system.l3cache.demandHits::cpu.data            762032                       # number of demand (read+write) hits (Count)
system.l3cache.demandHits::total               763228                       # number of demand (read+write) hits (Count)
system.l3cache.overallHits::cpu.inst             1196                       # number of overall hits (Count)
system.l3cache.overallHits::cpu.data           762032                       # number of overall hits (Count)
system.l3cache.overallHits::total              763228                       # number of overall hits (Count)
system.l3cache.demandMisses::cpu.inst             437                       # number of demand (read+write) misses (Count)
system.l3cache.demandMisses::cpu.data           95534                       # number of demand (read+write) misses (Count)
system.l3cache.demandMisses::total              95971                       # number of demand (read+write) misses (Count)
system.l3cache.overallMisses::cpu.inst            437                       # number of overall misses (Count)
system.l3cache.overallMisses::cpu.data          95534                       # number of overall misses (Count)
system.l3cache.overallMisses::total             95971                       # number of overall misses (Count)
system.l3cache.demandMissLatency::cpu.inst     57998000                       # number of demand (read+write) miss ticks (Tick)
system.l3cache.demandMissLatency::cpu.data  12750473000                       # number of demand (read+write) miss ticks (Tick)
system.l3cache.demandMissLatency::total   12808471000                       # number of demand (read+write) miss ticks (Tick)
system.l3cache.overallMissLatency::cpu.inst     57998000                       # number of overall miss ticks (Tick)
system.l3cache.overallMissLatency::cpu.data  12750473000                       # number of overall miss ticks (Tick)
system.l3cache.overallMissLatency::total  12808471000                       # number of overall miss ticks (Tick)
system.l3cache.demandAccesses::cpu.inst          1633                       # number of demand (read+write) accesses (Count)
system.l3cache.demandAccesses::cpu.data        857566                       # number of demand (read+write) accesses (Count)
system.l3cache.demandAccesses::total           859199                       # number of demand (read+write) accesses (Count)
system.l3cache.overallAccesses::cpu.inst         1633                       # number of overall (read+write) accesses (Count)
system.l3cache.overallAccesses::cpu.data       857566                       # number of overall (read+write) accesses (Count)
system.l3cache.overallAccesses::total          859199                       # number of overall (read+write) accesses (Count)
system.l3cache.demandMissRate::cpu.inst      0.267606                       # miss rate for demand accesses (Ratio)
system.l3cache.demandMissRate::cpu.data      0.111401                       # miss rate for demand accesses (Ratio)
system.l3cache.demandMissRate::total         0.111698                       # miss rate for demand accesses (Ratio)
system.l3cache.overallMissRate::cpu.inst     0.267606                       # miss rate for overall accesses (Ratio)
system.l3cache.overallMissRate::cpu.data     0.111401                       # miss rate for overall accesses (Ratio)
system.l3cache.overallMissRate::total        0.111698                       # miss rate for overall accesses (Ratio)
system.l3cache.demandAvgMissLatency::cpu.inst 132718.535469                       # average overall miss latency ((Cycle/Count))
system.l3cache.demandAvgMissLatency::cpu.data 133465.289844                       # average overall miss latency ((Cycle/Count))
system.l3cache.demandAvgMissLatency::total 133461.889529                       # average overall miss latency ((Cycle/Count))
system.l3cache.overallAvgMissLatency::cpu.inst 132718.535469                       # average overall miss latency ((Cycle/Count))
system.l3cache.overallAvgMissLatency::cpu.data 133465.289844                       # average overall miss latency ((Cycle/Count))
system.l3cache.overallAvgMissLatency::total 133461.889529                       # average overall miss latency ((Cycle/Count))
system.l3cache.blockedCycles::no_mshrs              0                       # number of cycles access was blocked (Cycle)
system.l3cache.blockedCycles::no_targets            0                       # number of cycles access was blocked (Cycle)
system.l3cache.blockedCauses::no_mshrs              0                       # number of times access was blocked (Count)
system.l3cache.blockedCauses::no_targets            0                       # number of times access was blocked (Count)
system.l3cache.avgBlocked::no_mshrs               nan                       # average number of cycles each access was blocked ((Cycle/Count))
system.l3cache.avgBlocked::no_targets             nan                       # average number of cycles each access was blocked ((Cycle/Count))
system.l3cache.writebacks::writebacks           63536                       # number of writebacks (Count)
system.l3cache.writebacks::total                63536                       # number of writebacks (Count)
system.l3cache.demandMshrMisses::cpu.inst          437                       # number of demand (read+write) MSHR misses (Count)
system.l3cache.demandMshrMisses::cpu.data        95534                       # number of demand (read+write) MSHR misses (Count)
system.l3cache.demandMshrMisses::total          95971                       # number of demand (read+write) MSHR misses (Count)
system.l3cache.overallMshrMisses::cpu.inst          437                       # number of overall MSHR misses (Count)
system.l3cache.overallMshrMisses::cpu.data        95534                       # number of overall MSHR misses (Count)
system.l3cache.overallMshrMisses::total         95971                       # number of overall MSHR misses (Count)
system.l3cache.demandMshrMissLatency::cpu.inst     41829000                       # number of demand (read+write) MSHR miss ticks (Tick)
system.l3cache.demandMshrMissLatency::cpu.data   9215715000                       # number of demand (read+write) MSHR miss ticks (Tick)
system.l3cache.demandMshrMissLatency::total   9257544000                       # number of demand (read+write) MSHR miss ticks (Tick)
system.l3cache.overallMshrMissLatency::cpu.inst     41829000                       # number of overall MSHR miss ticks (Tick)
system.l3cache.overallMshrMissLatency::cpu.data   9215715000                       # number of overall MSHR miss ticks (Tick)
system.l3cache.overallMshrMissLatency::total   9257544000                       # number of overall MSHR miss ticks (Tick)
system.l3cache.demandMshrMissRate::cpu.inst     0.267606                       # mshr miss ratio for demand accesses (Ratio)
system.l3cache.demandMshrMissRate::cpu.data     0.111401                       # mshr miss ratio for demand accesses (Ratio)
system.l3cache.demandMshrMissRate::total     0.111698                       # mshr miss ratio for demand accesses (Ratio)
system.l3cache.overallMshrMissRate::cpu.inst     0.267606                       # mshr miss ratio for overall accesses (Ratio)
system.l3cache.overallMshrMissRate::cpu.data     0.111401                       # mshr miss ratio for overall accesses (Ratio)
system.l3cache.overallMshrMissRate::total     0.111698                       # mshr miss ratio for overall accesses (Ratio)
system.l3cache.demandAvgMshrMissLatency::cpu.inst 95718.535469                       # average overall mshr miss latency ((Cycle/Count))
system.l3cache.demandAvgMshrMissLatency::cpu.data 96465.289844                       # average overall mshr miss latency ((Cycle/Count))
system.l3cache.demandAvgMshrMissLatency::total 96461.889529                       # average overall mshr miss latency ((Cycle/Count))
system.l3cache.overallAvgMshrMissLatency::cpu.inst 95718.535469                       # average overall mshr miss latency ((Cycle/Count))
system.l3cache.overallAvgMshrMissLatency::cpu.data 96465.289844                       # average overall mshr miss latency ((Cycle/Count))
system.l3cache.overallAvgMshrMissLatency::total 96461.889529                       # average overall mshr miss latency ((Cycle/Count))
system.l3cache.replacements                     79599                       # number of replacements (Count)
system.l3cache.CleanEvict.mshrMisses::writebacks           32                       # number of CleanEvict MSHR misses (Count)
system.l3cache.CleanEvict.mshrMisses::total           32                       # number of CleanEvict MSHR misses (Count)
system.l3cache.CleanEvict.mshrMissRate::writebacks          inf                       # mshr miss rate for CleanEvict accesses (Ratio)
system.l3cache.CleanEvict.mshrMissRate::total          inf                       # mshr miss rate for CleanEvict accesses (Ratio)
system.l3cache.ReadExReq.hits::cpu.data        327102                       # number of ReadExReq hits (Count)
system.l3cache.ReadExReq.hits::total           327102                       # number of ReadExReq hits (Count)
system.l3cache.ReadExReq.misses::cpu.data        32899                       # number of ReadExReq misses (Count)
system.l3cache.ReadExReq.misses::total          32899                       # number of ReadExReq misses (Count)
system.l3cache.ReadExReq.missLatency::cpu.data   4430233000                       # number of ReadExReq miss ticks (Tick)
system.l3cache.ReadExReq.missLatency::total   4430233000                       # number of ReadExReq miss ticks (Tick)
system.l3cache.ReadExReq.accesses::cpu.data       360001                       # number of ReadExReq accesses(hits+misses) (Count)
system.l3cache.ReadExReq.accesses::total       360001                       # number of ReadExReq accesses(hits+misses) (Count)
system.l3cache.ReadExReq.missRate::cpu.data     0.091386                       # miss rate for ReadExReq accesses (Ratio)
system.l3cache.ReadExReq.missRate::total     0.091386                       # miss rate for ReadExReq accesses (Ratio)
system.l3cache.ReadExReq.avgMissLatency::cpu.data 134661.631053                       # average ReadExReq miss latency ((Tick/Count))
system.l3cache.ReadExReq.avgMissLatency::total 134661.631053                       # average ReadExReq miss latency ((Tick/Count))
system.l3cache.ReadExReq.mshrMisses::cpu.data        32899                       # number of ReadExReq MSHR misses (Count)
system.l3cache.ReadExReq.mshrMisses::total        32899                       # number of ReadExReq MSHR misses (Count)
system.l3cache.ReadExReq.mshrMissLatency::cpu.data   3212970000                       # number of ReadExReq MSHR miss ticks (Tick)
system.l3cache.ReadExReq.mshrMissLatency::total   3212970000                       # number of ReadExReq MSHR miss ticks (Tick)
system.l3cache.ReadExReq.mshrMissRate::cpu.data     0.091386                       # mshr miss rate for ReadExReq accesses (Ratio)
system.l3cache.ReadExReq.mshrMissRate::total     0.091386                       # mshr miss rate for ReadExReq accesses (Ratio)
system.l3cache.ReadExReq.avgMshrMissLatency::cpu.data 97661.631053                       # average ReadExReq mshr miss latency ((Tick/Count))
system.l3cache.ReadExReq.avgMshrMissLatency::total 97661.631053                       # average ReadExReq mshr miss latency ((Tick/Count))
system.l3cache.ReadSharedReq.hits::cpu.inst         1196                       # number of ReadSharedReq hits (Count)
system.l3cache.ReadSharedReq.hits::cpu.data       434930                       # number of ReadSharedReq hits (Count)
system.l3cache.ReadSharedReq.hits::total       436126                       # number of ReadSharedReq hits (Count)
system.l3cache.ReadSharedReq.misses::cpu.inst          437                       # number of ReadSharedReq misses (Count)
system.l3cache.ReadSharedReq.misses::cpu.data        62635                       # number of ReadSharedReq misses (Count)
system.l3cache.ReadSharedReq.misses::total        63072                       # number of ReadSharedReq misses (Count)
system.l3cache.ReadSharedReq.missLatency::cpu.inst     57998000                       # number of ReadSharedReq miss ticks (Tick)
system.l3cache.ReadSharedReq.missLatency::cpu.data   8320240000                       # number of ReadSharedReq miss ticks (Tick)
system.l3cache.ReadSharedReq.missLatency::total   8378238000                       # number of ReadSharedReq miss ticks (Tick)
system.l3cache.ReadSharedReq.accesses::cpu.inst         1633                       # number of ReadSharedReq accesses(hits+misses) (Count)
system.l3cache.ReadSharedReq.accesses::cpu.data       497565                       # number of ReadSharedReq accesses(hits+misses) (Count)
system.l3cache.ReadSharedReq.accesses::total       499198                       # number of ReadSharedReq accesses(hits+misses) (Count)
system.l3cache.ReadSharedReq.missRate::cpu.inst     0.267606                       # miss rate for ReadSharedReq accesses (Ratio)
system.l3cache.ReadSharedReq.missRate::cpu.data     0.125883                       # miss rate for ReadSharedReq accesses (Ratio)
system.l3cache.ReadSharedReq.missRate::total     0.126347                       # miss rate for ReadSharedReq accesses (Ratio)
system.l3cache.ReadSharedReq.avgMissLatency::cpu.inst 132718.535469                       # average ReadSharedReq miss latency ((Tick/Count))
system.l3cache.ReadSharedReq.avgMissLatency::cpu.data 132836.912269                       # average ReadSharedReq miss latency ((Tick/Count))
system.l3cache.ReadSharedReq.avgMissLatency::total 132836.092085                       # average ReadSharedReq miss latency ((Tick/Count))
system.l3cache.ReadSharedReq.mshrMisses::cpu.inst          437                       # number of ReadSharedReq MSHR misses (Count)
[...]
system.mem_ctrl.dram.bwTotal::total           5306644                       # Total bandwidth to/from this memory ((Byte/Second))
system.mem_ctrl.dram.readBursts                191938                       # Number of DRAM read bursts (Count)
system.mem_ctrl.dram.writeBursts               127072                       # Number of DRAM write bursts (Count)
system.mem_ctrl.dram.perBankRdBursts::0         23932                       # Per bank write bursts (Count)
system.mem_ctrl.dram.perBankRdBursts::1         23932                       # Per bank write bursts (Count)
system.mem_ctrl.dram.perBankRdBursts::2         23921                       # Per bank write bursts (Count)
system.mem_ctrl.dram.perBankRdBursts::3         23921                       # Per bank write bursts (Count)
system.mem_ctrl.dram.perBankRdBursts::4         23930                       # Per bank write bursts (Count)
system.mem_ctrl.dram.perBankRdBursts::5         23930                       # Per bank write bursts (Count)
system.mem_ctrl.dram.perBankRdBursts::6         24186                       # Per bank write bursts (Count)
system.mem_ctrl.dram.perBankRdBursts::7         24186                       # Per bank write bursts (Count)
system.mem_ctrl.dram.perBankWrBursts::0         15817                       # Per bank write bursts (Count)
system.mem_ctrl.dram.perBankWrBursts::1         15817                       # Per bank write bursts (Count)
system.mem_ctrl.dram.perBankWrBursts::2         15818                       # Per bank write bursts (Count)
system.mem_ctrl.dram.perBankWrBursts::3         15818                       # Per bank write bursts (Count)
system.mem_ctrl.dram.perBankWrBursts::4         15823                       # Per bank write bursts (Count)
system.mem_ctrl.dram.perBankWrBursts::5         15823                       # Per bank write bursts (Count)
system.mem_ctrl.dram.perBankWrBursts::6         16078                       # Per bank write bursts (Count)
system.mem_ctrl.dram.perBankWrBursts::7         16078                       # Per bank write bursts (Count)
system.mem_ctrl.dram.totQLat               2545807600                       # Total ticks spent queuing (Tick)
system.mem_ctrl.dram.totBusLat              614201600                       # Total ticks spent in databus transfers (Tick)
system.mem_ctrl.dram.totMemAccLat          5060195400                       # Total ticks spent from burst creation until serviced by the DRAM (Tick)
system.mem_ctrl.dram.avgQLat                 13263.70                       # Average queueing delay per DRAM burst ((Tick/Count))
system.mem_ctrl.dram.avgBusLat                3200.00                       # Average bus latency per DRAM burst ((Tick/Count))
system.mem_ctrl.dram.avgMemAccLat            26363.70                       # Average memory access latency per DRAM burst ((Tick/Count))
system.mem_ctrl.dram.readRowHits                    0                       # Number of row buffer hits during reads (Count)
system.mem_ctrl.dram.writeRowHits               58607                       # Number of row buffer hits during writes (Count)
system.mem_ctrl.dram.readRowHitRate              0.00                       # Row buffer hit rate for reads (Ratio)
system.mem_ctrl.dram.writeRowHitRate            46.12                       # Row buffer hit rate for writes (Ratio)
system.mem_ctrl.dram.bytesPerActivate::samples       260403                       # Bytes accessed per row activation (Byte)
system.mem_ctrl.dram.bytesPerActivate::mean    39.202006                       # Bytes accessed per row activation (Byte)
system.mem_ctrl.dram.bytesPerActivate::gmean    36.999739                       # Bytes accessed per row activation (Byte)
system.mem_ctrl.dram.bytesPerActivate::stdev    15.989705                       # Bytes accessed per row activation (Byte)
system.mem_ctrl.dram.bytesPerActivate::32-39       211596     81.26%     81.26% # Bytes accessed per row activation (Byte)
system.mem_ctrl.dram.bytesPerActivate::64-71        39007     14.98%     96.24% # Bytes accessed per row activation (Byte)
system.mem_ctrl.dram.bytesPerActivate::96-103         9800      3.76%    100.00% # Bytes accessed per row activation (Byte)
system.mem_ctrl.dram.bytesPerActivate::total       260403                       # Bytes accessed per row activation (Byte)
system.mem_ctrl.dram.bytesRead                6142016                       # Total bytes read (Byte)
system.mem_ctrl.dram.bytesWritten             4066304                       # Total bytes written (Byte)
system.mem_ctrl.dram.avgRdBW                 3.192796                       # Average DRAM read bandwidth in MiBytes/s ((Byte/Second))
system.mem_ctrl.dram.avgWrBW                 2.113781                       # Average DRAM write bandwidth in MiBytes/s ((Byte/Second))
system.mem_ctrl.dram.peakBW                  10000.00                       # Theoretical peak bandwidth in MiByte/s ((Byte/Second))
system.mem_ctrl.dram.busUtil                     0.05                       # Data bus utilization in percentage (Ratio)
system.mem_ctrl.dram.busUtilRead                 0.03                       # Data bus utilization in percentage for reads (Ratio)
system.mem_ctrl.dram.busUtilWrite                0.02                       # Data bus utilization in percentage for writes (Ratio)
system.mem_ctrl.dram.pageHitRate                18.37                       # Row buffer hit rate, read and write combined (Ratio)
system.mem_ctrl.dram.power_state.pwrStateResidencyTicks::UNDEFINED 1923710740000                       # Cumulative time (in ticks) in various power states (Tick)
system.mem_ctrl.dram.rank0.actEnergy     35714422.800016                       # Energy for activate commands per rank (pJ) (Joule)
system.mem_ctrl.dram.rank0.preEnergy         17896116                       # Energy for precharge commands per rank (pJ) (Joule)
system.mem_ctrl.dram.rank0.readEnergy    27339916.799990                       # Energy for read commands per rank (pJ) (Joule)
system.mem_ctrl.dram.rank0.writeEnergy   13210358.400001                       # Energy for write commands per rank (pJ) (Joule)
system.mem_ctrl.dram.rank0.refreshEnergy 8645931902.478350                       # Energy for refresh commands per rank (pJ) (Joule)
system.mem_ctrl.dram.rank0.actBackEnergy 1498224115.206037                       # Energy for active background per rank (pJ) (Joule)
system.mem_ctrl.dram.rank0.preBackEnergy 91076453107.306854                       # Energy for precharge background per rank (pJ) (Joule)
system.mem_ctrl.dram.rank0.actPowerDownEnergy            0                       # Energy for active power-down per rank (pJ) (Joule)
system.mem_ctrl.dram.rank0.prePowerDownEnergy            0                       # Energy for precharge power-down per rank (pJ) (Joule)
system.mem_ctrl.dram.rank0.selfRefreshEnergy            0                       # Energy for self refresh per rank (pJ) (Joule)
system.mem_ctrl.dram.rank0.totalEnergy   101314769938.817429                       # Total energy per rank (pJ) (Joule)
system.mem_ctrl.dram.rank0.averagePower     52.666322                       # Core power per rank (mW) (Watt)
system.mem_ctrl.dram.rank0.totalIdleTime            0                       # Total Idle time Per DRAM Rank (Tick)
system.mem_ctrl.dram.rank0.pwrStateTime::IDLE 1893326368300                       # Time in different power states (Tick)
system.mem_ctrl.dram.rank0.pwrStateTime::REF  29159806000                       # Time in different power states (Tick)
system.mem_ctrl.dram.rank0.pwrStateTime::SREF            0                       # Time in different power states (Tick)
system.mem_ctrl.dram.rank0.pwrStateTime::PRE_PDN            0                       # Time in different power states (Tick)
system.mem_ctrl.dram.rank0.pwrStateTime::ACT   1224565700                       # Time in different power states (Tick)
system.mem_ctrl.dram.rank0.pwrStateTime::ACT_PDN            0                       # Time in different power states (Tick)
system.mem_ctrl.dram.rank1.actEnergy     35739208.800016                       # Energy for activate commands per rank (pJ) (Joule)
system.mem_ctrl.dram.rank1.preEnergy         17908536                       # Energy for precharge commands per rank (pJ) (Joule)
system.mem_ctrl.dram.rank1.readEnergy    27327350.399990                       # Energy for read commands per rank (pJ) (Joule)
system.mem_ctrl.dram.rank1.writeEnergy   13211193.600001                       # Energy for write commands per rank (pJ) (Joule)
system.mem_ctrl.dram.rank1.refreshEnergy 8645931902.478350                       # Energy for refresh commands per rank (pJ) (Joule)
system.mem_ctrl.dram.rank1.actBackEnergy 1498337431.206030                       # Energy for active background per rank (pJ) (Joule)
system.mem_ctrl.dram.rank1.preBackEnergy 91076357683.307785                       # Energy for precharge background per rank (pJ) (Joule)
system.mem_ctrl.dram.rank1.actPowerDownEnergy            0                       # Energy for active power-down per rank (pJ) (Joule)
system.mem_ctrl.dram.rank1.prePowerDownEnergy            0                       # Energy for precharge power-down per rank (pJ) (Joule)
system.mem_ctrl.dram.rank1.selfRefreshEnergy            0                       # Energy for self refresh per rank (pJ) (Joule)
system.mem_ctrl.dram.rank1.totalEnergy   101314813305.617889                       # Total energy per rank (pJ) (Joule)
system.mem_ctrl.dram.rank1.averagePower     52.666345                       # Core power per rank (mW) (Watt)
system.mem_ctrl.dram.rank1.totalIdleTime            0                       # Total Idle time Per DRAM Rank (Tick)
system.mem_ctrl.dram.rank1.pwrStateTime::IDLE 1893325068600                       # Time in different power states (Tick)
system.mem_ctrl.dram.rank1.pwrStateTime::REF  29159806000                       # Time in different power states (Tick)
system.mem_ctrl.dram.rank1.pwrStateTime::SREF            0                       # Time in different power states (Tick)
system.mem_ctrl.dram.rank1.pwrStateTime::PRE_PDN            0                       # Time in different power states (Tick)
system.mem_ctrl.dram.rank1.pwrStateTime::ACT   1225865400                       # Time in different power states (Tick)
system.mem_ctrl.dram.rank1.pwrStateTime::ACT_PDN            0                       # Time in different power states (Tick)
system.mem_ctrl.dram.rank2.actEnergy     35695144.800016                       # Energy for activate commands per rank (pJ) (Joule)
system.mem_ctrl.dram.rank2.preEnergy         17886456                       # Energy for precharge commands per rank (pJ) (Joule)
system.mem_ctrl.dram.rank2.readEnergy    27337631.999990                       # Energy for read commands per rank (pJ) (Joule)
system.mem_ctrl.dram.rank2.writeEnergy   13215369.600001                       # Energy for write commands per rank (pJ) (Joule)
system.mem_ctrl.dram.rank2.refreshEnergy 8645931902.478350                       # Energy for refresh commands per rank (pJ) (Joule)
system.mem_ctrl.dram.rank2.actBackEnergy 1498339483.206032                       # Energy for active background per rank (pJ) (Joule)
system.mem_ctrl.dram.rank2.preBackEnergy 91076355955.308075                       # Energy for precharge background per rank (pJ) (Joule)
system.mem_ctrl.dram.rank2.actPowerDownEnergy            0                       # Energy for active power-down per rank (pJ) (Joule)
system.mem_ctrl.dram.rank2.prePowerDownEnergy            0                       # Energy for precharge power-down per rank (pJ) (Joule)
system.mem_ctrl.dram.rank2.selfRefreshEnergy            0                       # Energy for self refresh per rank (pJ) (Joule)
system.mem_ctrl.dram.rank2.totalEnergy   101314761943.218933                       # Total energy per rank (pJ) (Joule)
system.mem_ctrl.dram.rank2.averagePower     52.666318                       # Core power per rank (mW) (Watt)
system.mem_ctrl.dram.rank2.totalIdleTime            0                       # Total Idle time Per DRAM Rank (Tick)
system.mem_ctrl.dram.rank2.pwrStateTime::IDLE 1893325254100                       # Time in different power states (Tick)
system.mem_ctrl.dram.rank2.pwrStateTime::REF  29159806000                       # Time in different power states (Tick)
system.mem_ctrl.dram.rank2.pwrStateTime::SREF            0                       # Time in different power states (Tick)
system.mem_ctrl.dram.rank2.pwrStateTime::PRE_PDN            0                       # Time in different power states (Tick)
system.mem_ctrl.dram.rank2.pwrStateTime::ACT   1225679900                       # Time in different power states (Tick)
system.mem_ctrl.dram.rank2.pwrStateTime::ACT_PDN            0                       # Time in different power states (Tick)
system.mem_ctrl.dram.rank3.actEnergy     36281196.000016                       # Energy for activate commands per rank (pJ) (Joule)
system.mem_ctrl.dram.rank3.preEnergy         18180120                       # Energy for precharge commands per rank (pJ) (Joule)
system.mem_ctrl.dram.rank3.readEnergy    27630086.399990                       # Energy for read commands per rank (pJ) (Joule)
system.mem_ctrl.dram.rank3.writeEnergy   13428345.600001                       # Energy for write commands per rank (pJ) (Joule)
system.mem_ctrl.dram.rank3.refreshEnergy 8645931902.478350                       # Energy for refresh commands per rank (pJ) (Joule)
system.mem_ctrl.dram.rank3.actBackEnergy 1499430189.606072                       # Energy for active background per rank (pJ) (Joule)
system.mem_ctrl.dram.rank3.preBackEnergy 91075437465.707169                       # Energy for precharge background per rank (pJ) (Joule)
system.mem_ctrl.dram.rank3.actPowerDownEnergy            0                       # Energy for active power-down per rank (pJ) (Joule)
system.mem_ctrl.dram.rank3.prePowerDownEnergy            0                       # Energy for precharge power-down per rank (pJ) (Joule)
system.mem_ctrl.dram.rank3.selfRefreshEnergy            0                       # Energy for self refresh per rank (pJ) (Joule)
system.mem_ctrl.dram.rank3.totalEnergy   101316319305.617798                       # Total energy per rank (pJ) (Joule)
system.mem_ctrl.dram.rank3.averagePower     52.667128                       # Core power per rank (mW) (Watt)
system.mem_ctrl.dram.rank3.totalIdleTime            0                       # Total Idle time Per DRAM Rank (Tick)
system.mem_ctrl.dram.rank3.pwrStateTime::IDLE 1893302662200                       # Time in different power states (Tick)
system.mem_ctrl.dram.rank3.pwrStateTime::REF  29159806000                       # Time in different power states (Tick)
system.mem_ctrl.dram.rank3.pwrStateTime::SREF            0                       # Time in different power states (Tick)
system.mem_ctrl.dram.rank3.pwrStateTime::PRE_PDN            0                       # Time in different power states (Tick)
system.mem_ctrl.dram.rank3.pwrStateTime::ACT   1248271800                       # Time in different power states (Tick)
system.mem_ctrl.dram.rank3.pwrStateTime::ACT_PDN            0                       # Time in different power states (Tick)
system.mem_ctrl.power_state.pwrStateResidencyTicks::UNDEFINED 1923710740000                       # Cumulative time (in ticks) in various power states (Tick)
system.membus.transDist::ReadResp               63072                       # Transaction distribution (Count)
system.membus.transDist::WritebackDirty         63536                       # Transaction distribution (Count)
system.membus.transDist::CleanEvict             16051                       # Transaction distribution (Count)
system.membus.transDist::ReadExReq              32899                       # Transaction distribution (Count)
system.membus.transDist::ReadExResp             32899                       # Transaction distribution (Count)
system.membus.transDist::ReadSharedReq          63072                       # Transaction distribution (Count)
system.membus.pktCount_system.l3cache.mem_side_port::system.mem_ctrl.port       271529                       # Packet count per connected requestor and responder (Count)
system.membus.pktCount::total                  271529                       # Packet count per connected requestor and responder (Count)
system.membus.pktSize_system.l3cache.mem_side_port::system.mem_ctrl.port     10208448                       # Cumulative packet size per connected requestor and responder (Byte)
system.membus.pktSize::total                 10208448                       # Cumulative packet size per connected requestor and responder (Byte)
system.membus.snoops                                0                       # Total snoops (Count)
system.membus.snoopTraffic                          0                       # Total snoop traffic (Byte)
system.membus.snoopFanout::samples              95971                       # Request fanout histogram (Count)
system.membus.snoopFanout::mean                     0                       # Request fanout histogram (Count)
system.membus.snoopFanout::stdev                    0                       # Request fanout histogram (Count)
system.membus.snoopFanout::underflows               0      0.00%      0.00% # Request fanout histogram (Count)
system.membus.snoopFanout::0                    95971    100.00%    100.00% # Request fanout histogram (Count)
system.membus.snoopFanout::1                        0      0.00%    100.00% # Request fanout histogram (Count)
system.membus.snoopFanout::overflows                0      0.00%    100.00% # Request fanout histogram (Count)
system.membus.snoopFanout::min_value                0                       # Request fanout histogram (Count)
system.membus.snoopFanout::max_value                0                       # Request fanout histogram (Count)
system.membus.snoopFanout::total                95971                       # Request fanout histogram (Count)
system.membus.power_state.pwrStateResidencyTicks::UNDEFINED 1923710740000                       # Cumulative time (in ticks) in various power states (Tick)
system.membus.reqLayer0.occupancy           429702000                       # Layer occupancy (ticks) (Tick)
system.membus.reqLayer0.utilization               0.0                       # Layer utilization (Ratio)
system.membus.respLayer0.occupancy          527720100                       # Layer occupancy (ticks) (Tick)
system.membus.respLayer0.utilization              0.0                       # Layer utilization (Ratio)
system.membus.snoop_filter.totRequests         175558                       # Total number of requests made to the snoop filter. (Count)
system.membus.snoop_filter.hitSingleRequests        79587                       # Number of requests hitting in the snoop filter with a single holder of the requested data. (Count)
system.membus.snoop_filter.hitMultiRequests            0                       # Number of requests hitting in the snoop filter with multiple (>1) holders of the requested data. (Count)
system.membus.snoop_filter.totSnoops                0                       # Total number of snoops made to the snoop filter. (Count)
system.membus.snoop_filter.hitSingleSnoops            0                       # Number of snoops hitting in the snoop filter with a single holder of the requested data. (Count)
system.membus.snoop_filter.hitMultiSnoops            0                       # Number of snoops hitting in the snoop filter with multiple (>1) holders of the requested data. (Count)
system.workload.inst.arm                            0                       # number of arm instructions executed (Count)
system.workload.inst.quiesce                        0                       # number of quiesce instructions executed (Count)

---------- End Simulation Statistics   ----------
