
---------- Begin Simulation Statistics ----------
simSeconds                                   2.115776                       # Number of seconds simulated (Second)
simTicks                                 2115776258000                       # Number of ticks simulated (Tick)
finalTick                                2115776258000                       # Number of ticks from beginning of simulation (restored from checkpoints and never reset) (Tick)
simFreq                                  1000000000000                       # The number of ticks per simulated second ((Tick/Second))
hostSeconds                                    214.78                       # Real time elapsed on the host (Second)
hostTickRate                               9850910375                       # The number of ticks simulated per host second (ticks/s) ((Tick/Second))
hostMemory                                     683740                       # Number of bytes of host memory used (Byte)
simInsts                                    338594450                       # Number of instructions simulated (Count)
simOps                                      338594450                       # Number of ops (including micro ops) simulated (Count)
hostInstRate                                  1576472                       # Simulator instruction rate (inst/s) ((Count/Second))
hostOpRate                                    1576472                       # Simulator op (including micro ops) rate (op/s) ((Count/Second))
system.clk_domain.clock                          1000                       # Clock period in ticks (Tick)
system.clk_domain.voltage_domain.voltage            1                       # Voltage in Volts (Volt)
system.cpu.numCycles                       2115776258                       # Number of cpu cycles simulated (Cycle)
system.cpu.numWorkItemsStarted                      0                       # Number of work items this cpu started (Count)
system.cpu.numWorkItemsCompleted                    0                       # Number of work items this cpu completed (Count)
system.cpu.dcache.demandHits::cpu.data      117751313                       # number of demand (read+write) hits (Count)
system.cpu.dcache.demandHits::total         117751313                       # number of demand (read+write) hits (Count)
system.cpu.dcache.overallHits::cpu.data     117751313                       # number of overall hits (Count)
system.cpu.dcache.overallHits::total        117751313                       # number of overall hits (Count)
system.cpu.dcache.demandMisses::cpu.data      5292276                       # number of demand (read+write) misses (Count)
system.cpu.dcache.demandMisses::total         5292276                       # number of demand (read+write) misses (Count)
system.cpu.dcache.overallMisses::cpu.data      5292276                       # number of overall misses (Count)
system.cpu.dcache.overallMisses::total        5292276                       # number of overall misses (Count)
system.cpu.dcache.demandMissLatency::cpu.data 268012608000                       # number of demand (read+write) miss ticks (Tick)
system.cpu.dcache.demandMissLatency::total 268012608000                       # number of demand (read+write) miss ticks (Tick)
system.cpu.dcache.overallMissLatency::cpu.data 268012608000                       # number of overall miss ticks (Tick)
system.cpu.dcache.overallMissLatency::total 268012608000                       # number of overall miss ticks (Tick)
system.cpu.dcache.demandAccesses::cpu.data    123043589                       # number of demand (read+write) accesses (Count)
system.cpu.dcache.demandAccesses::total     123043589                       # number of demand (read+write) accesses (Count)
system.cpu.dcache.overallAccesses::cpu.data    123043589                       # number of overall (read+write) accesses (Count)
system.cpu.dcache.overallAccesses::total    123043589                       # number of overall (read+write) accesses (Count)
system.cpu.dcache.demandMissRate::cpu.data     0.043011                       # miss rate for demand accesses (Ratio)
system.cpu.dcache.demandMissRate::total      0.043011                       # miss rate for demand accesses (Ratio)
system.cpu.dcache.overallMissRate::cpu.data     0.043011                       # miss rate for overall accesses (Ratio)
system.cpu.dcache.overallMissRate::total     0.043011                       # miss rate for overall accesses (Ratio)
system.cpu.dcache.demandAvgMissLatency::cpu.data 50642.220474                       # average overall miss latency ((Cycle/Count))
system.cpu.dcache.demandAvgMissLatency::total 50642.220474                       # average overall miss latency ((Cycle/Count))
system.cpu.dcache.overallAvgMissLatency::cpu.data 50642.220474                       # average overall miss latency ((Cycle/Count))
system.cpu.dcache.overallAvgMissLatency::total 50642.220474                       # average overall miss latency ((Cycle/Count))
system.cpu.dcache.blockedCycles::no_mshrs            0                       # number of cycles access was blocked (Cycle)
system.cpu.dcache.blockedCycles::no_targets            0                       # number of cycles access was blocked (Cycle)
system.cpu.dcache.blockedCauses::no_mshrs            0                       # number of times access was blocked (Count)
system.cpu.dcache.blockedCauses::no_targets            0                       # number of times access was blocked (Count)
system.cpu.dcache.avgBlocked::no_mshrs            nan                       # average number of cycles each access was blocked ((Cycle/Count))
system.cpu.dcache.avgBlocked::no_targets          nan                       # average number of cycles each access was blocked ((Cycle/Count))
system.cpu.dcache.writebacks::writebacks      4244719                       # number of writebacks (Count)
system.cpu.dcache.writebacks::total           4244719                       # number of writebacks (Count)
system.cpu.dcache.demandMshrMisses::cpu.data      5292276                       # number of demand (read+write) MSHR misses (Count)
system.cpu.dcache.demandMshrMisses::total      5292276                       # number of demand (read+write) MSHR misses (Count)
system.cpu.dcache.overallMshrMisses::cpu.data      5292276                       # number of overall MSHR misses (Count)
system.cpu.dcache.overallMshrMisses::total      5292276                       # number of overall MSHR misses (Count)
system.cpu.dcache.demandMshrMissLatency::cpu.data 246843504000                       # number of demand (read+write) MSHR miss ticks (Tick)
system.cpu.dcache.demandMshrMissLatency::total 246843504000                       # number of demand (read+write) MSHR miss ticks (Tick)
system.cpu.dcache.overallMshrMissLatency::cpu.data 246843504000                       # number of overall MSHR miss ticks (Tick)
system.cpu.dcache.overallMshrMissLatency::total 246843504000                       # number of overall MSHR miss ticks (Tick)
system.cpu.dcache.demandMshrMissRate::cpu.data     0.043011                       # mshr miss ratio for demand accesses (Ratio)
system.cpu.dcache.demandMshrMissRate::total     0.043011                       # mshr miss ratio for demand accesses (Ratio)
system.cpu.dcache.overallMshrMissRate::cpu.data     0.043011                       # mshr miss ratio for overall accesses (Ratio)
system.cpu.dcache.overallMshrMissRate::total     0.043011                       # mshr miss ratio for overall accesses (Ratio)
system.cpu.dcache.demandAvgMshrMissLatency::cpu.data 46642.220474                       # average overall mshr miss latency ((Cycle/Count))
system.cpu.dcache.demandAvgMshrMissLatency::total 46642.220474                       # average overall mshr miss latency ((Cycle/Count))
system.cpu.dcache.overallAvgMshrMissLatency::cpu.data 46642.220474                       # average overall mshr miss latency ((Cycle/Count))
system.cpu.dcache.overallAvgMshrMissLatency::total 46642.220474                       # average overall mshr miss latency ((Cycle/Count))
system.cpu.dcache.replacements                5261648                       # number of replacements (Count)
system.cpu.dcache.ReadReq.hits::cpu.data     90106620                       # number of ReadReq hits (Count)
system.cpu.dcache.ReadReq.hits::total        90106620                       # number of ReadReq hits (Count)
system.cpu.dcache.ReadReq.misses::cpu.data      3420680                       # number of ReadReq misses (Count)
system.cpu.dcache.ReadReq.misses::total       3420680                       # number of ReadReq misses (Count)
system.cpu.dcache.ReadReq.missLatency::cpu.data 159775676000                       # number of ReadReq miss ticks (Tick)
system.cpu.dcache.ReadReq.missLatency::total 159775676000                       # number of ReadReq miss ticks (Tick)
system.cpu.dcache.ReadReq.accesses::cpu.data     93527300                       # number of ReadReq accesses(hits+misses) (Count)
system.cpu.dcache.ReadReq.accesses::total     93527300                       # number of ReadReq accesses(hits+misses) (Count)
system.cpu.dcache.ReadReq.missRate::cpu.data     0.036574                       # miss rate for ReadReq accesses (Ratio)
system.cpu.dcache.ReadReq.missRate::total     0.036574                       # miss rate for ReadReq accesses (Ratio)
system.cpu.dcache.ReadReq.avgMissLatency::cpu.data 46708.746799                       # average ReadReq miss latency ((Tick/Count))
system.cpu.dcache.ReadReq.avgMissLatency::total 46708.746799                       # average ReadReq miss latency ((Tick/Count))
system.cpu.dcache.ReadReq.mshrMisses::cpu.data      3420680                       # number of ReadReq MSHR misses (Count)
system.cpu.dcache.ReadReq.mshrMisses::total      3420680                       # number of ReadReq MSHR misses (Count)
system.cpu.dcache.ReadReq.mshrMissLatency::cpu.data 146092956000                       # number of ReadReq MSHR miss ticks (Tick)
system.cpu.dcache.ReadReq.mshrMissLatency::total 146092956000                       # number of ReadReq MSHR miss ticks (Tick)
system.cpu.dcache.ReadReq.mshrMissRate::cpu.data     0.036574                       # mshr miss rate for ReadReq accesses (Ratio)
system.cpu.dcache.ReadReq.mshrMissRate::total     0.036574                       # mshr miss rate for ReadReq accesses (Ratio)
system.cpu.dcache.ReadReq.avgMshrMissLatency::cpu.data 42708.746799                       # average ReadReq mshr miss latency ((Tick/Count))
system.cpu.dcache.ReadReq.avgMshrMissLatency::total 42708.746799                       # average ReadReq mshr miss latency ((Tick/Count))
system.cpu.dcache.WriteReq.hits::cpu.data     27644693                       # number of WriteReq hits (Count)
system.cpu.dcache.WriteReq.hits::total       27644693                       # number of WriteReq hits (Count)
system.cpu.dcache.WriteReq.misses::cpu.data      1871596                       # number of WriteReq misses (Count)
system.cpu.dcache.WriteReq.misses::total      1871596                       # number of WriteReq misses (Count)
system.cpu.dcache.WriteReq.missLatency::cpu.data 108236932000                       # number of WriteReq miss ticks (Tick)
system.cpu.dcache.WriteReq.missLatency::total 108236932000                       # number of WriteReq miss ticks (Tick)
system.cpu.dcache.WriteReq.accesses::cpu.data     29516289                       # number of WriteReq accesses(hits+misses) (Count)
system.cpu.dcache.WriteReq.accesses::total     29516289                       # number of WriteReq accesses(hits+misses) (Count)
system.cpu.dcache.WriteReq.missRate::cpu.data     0.063409                       # miss rate for WriteReq accesses (Ratio)
system.cpu.dcache.WriteReq.missRate::total     0.063409                       # miss rate for WriteReq accesses (Ratio)
system.cpu.dcache.WriteReq.avgMissLatency::cpu.data 57831.354630                       # average WriteReq miss latency ((Tick/Count))
system.cpu.dcache.WriteReq.avgMissLatency::total 57831.354630                       # average WriteReq miss latency ((Tick/Count))
system.cpu.dcache.WriteReq.mshrMisses::cpu.data      1871596                       # number of WriteReq MSHR misses (Count)
system.cpu.dcache.WriteReq.mshrMisses::total      1871596                       # number of WriteReq MSHR misses (Count)
system.cpu.dcache.WriteReq.mshrMissLatency::cpu.data 100750548000                       # number of WriteReq MSHR miss ticks (Tick)
system.cpu.dcache.WriteReq.mshrMissLatency::total 100750548000                       # number of WriteReq MSHR miss ticks (Tick)
system.cpu.dcache.WriteReq.mshrMissRate::cpu.data     0.063409                       # mshr miss rate for WriteReq accesses (Ratio)
system.cpu.dcache.WriteReq.mshrMissRate::total     0.063409                       # mshr miss rate for WriteReq accesses (Ratio)
system.cpu.dcache.WriteReq.avgMshrMissLatency::cpu.data 53831.354630                       # average WriteReq mshr miss latency ((Tick/Count))
system.cpu.dcache.WriteReq.avgMshrMissLatency::total 53831.354630                       # average WriteReq mshr miss latency ((Tick/Count))
system.cpu.dcache.power_state.pwrStateResidencyTicks::UNDEFINED 2115776258000                       # Cumulative time (in ticks) in various power states (Tick)
system.cpu.dcache.tags.tagsInUse            31.999741                       # Average ticks per tags in use ((Tick/Count))
system.cpu.dcache.tags.totalRefs            123043589                       # Total number of references to valid blocks. (Count)
system.cpu.dcache.tags.sampledRefs            5261680                       # Sample count of references to valid blocks. (Count)
system.cpu.dcache.tags.avgRefs              23.384848                       # Average number of references to valid blocks. ((Count/Count))
system.cpu.dcache.tags.warmupTick              482000                       # The tick when the warmup percentage was hit. (Tick)
system.cpu.dcache.tags.occupancies::cpu.data    31.999741                       # Average occupied blocks per tick, per requestor ((Count/Tick))
system.cpu.dcache.tags.avgOccs::cpu.data     0.999992                       # Average percentage of cache occupancy ((Ratio/Tick))
system.cpu.dcache.tags.avgOccs::total        0.999992                       # Average percentage of cache occupancy ((Ratio/Tick))
system.cpu.dcache.tags.occupanciesTaskId::1024           32                       # Occupied blocks per task id (Count)
system.cpu.dcache.tags.ageTaskId_1024::0           16                       # Occupied blocks per task id, per block age (Count)
system.cpu.dcache.tags.ageTaskId_1024::1           16                       # Occupied blocks per task id, per block age (Count)
system.cpu.dcache.tags.ratioOccsTaskId::1024            1                       # Ratio of occupied blocks and all blocks, per task id (Ratio)
system.cpu.dcache.tags.tagAccesses          128305269                       # Number of tag accesses (Count)
system.cpu.dcache.tags.dataAccesses         128305269                       # Number of data accesses (Count)
system.cpu.dcache.tags.power_state.pwrStateResidencyTicks::UNDEFINED 2115776258000                       # Cumulative time (in ticks) in various power states (Tick)
system.cpu.exec_context.thread_0.numInsts    338594450                       # Number of instructions committed (Count)
system.cpu.exec_context.thread_0.numOps     338594450                       # Number of ops (including micro ops) committed (Count)
system.cpu.exec_context.thread_0.numIntAluAccesses    337591617                       # Number of integer alu accesses (Count)
system.cpu.exec_context.thread_0.numFpAluAccesses           18                       # Number of float alu accesses (Count)
system.cpu.exec_context.thread_0.numVecAluAccesses            0                       # Number of vector alu accesses (Count)
system.cpu.exec_context.thread_0.numCallsReturns      1500244                       # Number of times a function call or return occured (Count)
system.cpu.exec_context.thread_0.numCondCtrlInsts     16494644                       # Number of instructions that are conditional controls (Count)
system.cpu.exec_context.thread_0.numIntInsts    337591617                       # Number of integer instructions (Count)
system.cpu.exec_context.thread_0.numFpInsts           18                       # Number of float instructions (Count)
system.cpu.exec_context.thread_0.numVecInsts            0                       # Number of vector instructions (Count)
system.cpu.exec_context.thread_0.numIntRegReads    493586797                       # Number of times the integer registers were read (Count)
system.cpu.exec_context.thread_0.numIntRegWrites    323578361                       # Number of times the integer registers were written (Count)
system.cpu.exec_context.thread_0.numFpRegReads           18                       # Number of times the floating registers were read (Count)
system.cpu.exec_context.thread_0.numFpRegWrites            0                       # Number of times the floating registers were written (Count)
system.cpu.exec_context.thread_0.numVecRegReads            0                       # Number of times the vector registers were read (Count)
system.cpu.exec_context.thread_0.numVecRegWrites            0                       # Number of times the vector registers were written (Count)
system.cpu.exec_context.thread_0.numVecPredRegReads            0                       # Number of times the predicate registers were read (Count)
system.cpu.exec_context.thread_0.numVecPredRegWrites            0                       # Number of times the predicate registers were written (Count)
system.cpu.exec_context.thread_0.numMiscRegReads            0                       # Number of times the Misc registers were read (Count)
system.cpu.exec_context.thread_0.numMiscRegWrites            0                       # Number of times the Misc registers were written (Count)
system.cpu.exec_context.thread_0.numMemRefs    123044099                       # Number of memory refs (Count)
system.cpu.exec_context.thread_0.numLoadInsts     93527300                       # Number of load instructions (Count)
system.cpu.exec_context.thread_0.numStoreInsts     29516799                       # Number of store instructions (Count)
system.cpu.exec_context.thread_0.numIdleCycles     0.001000                       # Number of idle cycles (Cycle)
system.cpu.exec_context.thread_0.numBusyCycles 2115776257.999000                       # Number of busy cycles (Cycle)
system.cpu.exec_context.thread_0.notIdleFraction     1.000000                       # Percentage of non-idle cycles (Ratio)
system.cpu.exec_context.thread_0.idleFraction     0.000000                       # Percentage of idle cycles (Ratio)
system.cpu.exec_context.thread_0.numBranches     17998143                       # Number of branches fetched (Count)
system.cpu.exec_context.thread_0.statExecutedInstType::No_OpClass            0      0.00%      0.00% # Class of executed instruction. (Count)
system.cpu.exec_context.thread_0.statExecutedInstType::IntAlu    215550870     63.66%     63.66% # Class of executed instruction. (Count)
system.cpu.exec_context.thread_0.statExecutedInstType::IntMult            0      0.00%     63.66% # Class of executed instruction. (Count)
system.cpu.exec_context.thread_0.statExecutedInstType::IntDiv            0      0.00%     63.66% # Class of executed instruction. (Count)
system.cpu.exec_context.thread_0.statExecutedInstType::FloatAdd            0      0.00%     63.66% # Class of executed instruction. (Count)
system.cpu.exec_context.thread_0.statExecutedInstType::FloatCmp            0      0.00%     63.66% # Class of executed instruction. (Count)
system.cpu.exec_context.thread_0.statExecutedInstType::FloatCvt            0      0.00%     63.66% # Class of executed instruction. (Count)
system.cpu.exec_context.thread_0.statExecutedInstType::FloatMult            0      0.00%     63.66% # Class of executed instruction. (Count)
system.cpu.exec_context.thread_0.statExecutedInstType::FloatMultAcc            0      0.00%     63.66% # Class of executed instruction. (Count)
system.cpu.exec_context.thread_0.statExecutedInstType::FloatDiv            0      0.00%     63.66% # Class of executed instruction. (Count)
system.cpu.exec_context.thread_0.statExecutedInstType::FloatMisc            0      0.00%     63.66% # Class of executed instruction. (Count)
system.cpu.exec_context.thread_0.statExecutedInstType::FloatSqrt            0      0.00%     63.66% # Class of executed instruction. (Count)
system.cpu.exec_context.thread_0.statExecutedInstType::SimdAdd            0      0.00%     63.66% # Class of executed instruction. (Count)
system.cpu.exec_context.thread_0.statExecutedInstType::SimdAddAcc            0      0.00%     63.66% # Class of executed instruction. (Count)
system.cpu.exec_context.thread_0.statExecutedInstType::SimdAlu            0      0.00%     63.66% # Class of executed instruction. (Count)
system.cpu.exec_context.thread_0.statExecutedInstType::SimdCmp            0      0.00%     63.66% # Class of executed instruction. (Count)
system.cpu.exec_context.thread_0.statExecutedInstType::SimdCvt            0      0.00%     63.66% # Class of executed instruction. (Count)
system.cpu.exec_context.thread_0.statExecutedInstType::SimdMisc            0      0.00%     63.66% # Class of executed instruction. (Count)
system.cpu.exec_context.thread_0.statExecutedInstType::SimdMult            0      0.00%     63.66% # Class of executed instruction. (Count)
system.cpu.exec_context.thread_0.statExecutedInstType::SimdMultAcc            0      0.00%     63.66% # Class of executed instruction. (Count)
system.cpu.exec_context.thread_0.statExecutedInstType::SimdShift            0      0.00%     63.66% # Class of executed instruction. (Count)
system.cpu.exec_context.thread_0.statExecutedInstType::SimdShiftAcc            0      0.00%     63.66% # Class of executed instruction. (Count)
system.cpu.exec_context.thread_0.statExecutedInstType::SimdDiv            0      0.00%     63.66% # Class of executed instruction. (Count)
system.cpu.exec_context.thread_0.statExecutedInstType::SimdSqrt            0      0.00%     63.66% # Class of executed instruction. (Count)
system.cpu.exec_context.thread_0.statExecutedInstType::SimdFloatAdd            0      0.00%     63.66% # Class of executed instruction. (Count)
system.cpu.exec_context.thread_0.statExecutedInstType::SimdFloatAlu            0      0.00%     63.66% # Class of executed instruction. (Count)
system.cpu.exec_context.thread_0.statExecutedInstType::SimdFloatCmp            0      0.00%     63.66% # Class of executed instruction. (Count)
system.cpu.exec_context.thread_0.statExecutedInstType::SimdFloatCvt            0      0.00%     63.66% # Class of executed instruction. (Count)
system.cpu.exec_context.thread_0.statExecutedInstType::SimdFloatDiv            0      0.00%     63.66% # Class of executed instruction. (Count)
system.cpu.exec_context.thread_0.statExecutedInstType::SimdFloatMisc            0      0.00%     63.66% # Class of executed instruction. (Count)
system.cpu.exec_context.thread_0.statExecutedInstType::SimdFloatMult            0      0.00%     63.66% # Class of executed instruction. (Count)
system.cpu.exec_context.thread_0.statExecutedInstType::SimdFloatMultAcc            0      0.00%     63.66% # Class of executed instruction. (Count)
system.cpu.exec_context.thread_0.statExecutedInstType::SimdFloatSqrt            0      0.00%     63.66% # Class of executed instruction. (Count)
system.cpu.exec_context.thread_0.statExecutedInstType::SimdReduceAdd            0      0.00%     63.66% # Class of executed instruction. (Count)
system.cpu.exec_context.thread_0.statExecutedInstType::SimdReduceAlu            0      0.00%     63.66% # Class of executed instruction. (Count)
system.cpu.exec_context.thread_0.statExecutedInstType::SimdReduceCmp            0      0.00%     63.66% # Class of executed instruction. (Count)
system.cpu.exec_context.thread_0.statExecutedInstType::SimdFloatReduceAdd            0      0.00%     63.66% # Class of executed instruction. (Count)
system.cpu.exec_context.thread_0.statExecutedInstType::SimdFloatReduceCmp            0      0.00%     63.66% # Class of executed instruction. (Count)
system.cpu.exec_context.thread_0.statExecutedInstType::SimdAes            0      0.00%     63.66% # Class of executed instruction. (Count)
system.cpu.exec_context.thread_0.statExecutedInstType::SimdAesMix            0      0.00%     63.66% # Class of executed instruction. (Count)
system.cpu.exec_context.thread_0.statExecutedInstType::SimdSha1Hash            0      0.00%     63.66% # Class of executed instruction. (Count)
system.cpu.exec_context.thread_0.statExecutedInstType::SimdSha1Hash2            0      0.00%     63.66% # Class of executed instruction. (Count)
system.cpu.exec_context.thread_0.statExecutedInstType::SimdSha256Hash            0      0.00%     63.66% # Class of executed instruction. (Count)
system.cpu.exec_context.thread_0.statExecutedInstType::SimdSha256Hash2            0      0.00%     63.66% # Class of executed instruction. (Count)
system.cpu.exec_context.thread_0.statExecutedInstType::SimdShaSigma2            0      0.00%     63.66% # Class of executed instruction. (Count)
system.cpu.exec_context.thread_0.statExecutedInstType::SimdShaSigma3            0      0.00%     63.66% # Class of executed instruction. (Count)
system.cpu.exec_context.thread_0.statExecutedInstType::SimdPredAlu            0      0.00%     63.66% # Class of executed instruction. (Count)
system.cpu.exec_context.thread_0.statExecutedInstType::MemRead     93527300     27.62%     91.28% # Class of executed instruction. (Count)
system.cpu.exec_context.thread_0.statExecutedInstType::MemWrite     29516781      8.72%    100.00% # Class of executed instruction. (Count)
system.cpu.exec_context.thread_0.statExecutedInstType::FloatMemRead            0      0.00%    100.00% # Class of executed instruction. (Count)
system.cpu.exec_context.thread_0.statExecutedInstType::FloatMemWrite           18      0.00%    100.00% # Class of executed instruction. (Count)
system.cpu.exec_context.thread_0.statExecutedInstType::IprAccess            0      0.00%    100.00% # Class of executed instruction. (Count)
system.cpu.exec_context.thread_0.statExecutedInstType::InstPrefetch            0      0.00%    100.00% # Class of executed instruction. (Count)
system.cpu.exec_context.thread_0.statExecutedInstType::total    338594969                       # Class of executed instruction. (Count)
system.cpu.icache.demandHits::cpu.inst      337593353                       # number of demand (read+write) hits (Count)
system.cpu.icache.demandHits::total         337593353                       # number of demand (read+write) hits (Count)
system.cpu.icache.overallHits::cpu.inst     337593353                       # number of overall hits (Count)
system.cpu.icache.overallHits::total        337593353                       # number of overall hits (Count)
system.cpu.icache.demandMisses::cpu.inst      1001616                       # number of demand (read+write) misses (Count)
system.cpu.icache.demandMisses::total         1001616                       # number of demand (read+write) misses (Count)
system.cpu.icache.overallMisses::cpu.inst      1001616                       # number of overall misses (Count)
system.cpu.icache.overallMisses::total        1001616                       # number of overall misses (Count)
system.cpu.icache.demandMissLatency::cpu.inst  26384986000                       # number of demand (read+write) miss ticks (Tick)
system.cpu.icache.demandMissLatency::total  26384986000                       # number of demand (read+write) miss ticks (Tick)
system.cpu.icache.overallMissLatency::cpu.inst  26384986000                       # number of overall miss ticks (Tick)
system.cpu.icache.overallMissLatency::total  26384986000                       # number of overall miss ticks (Tick)
system.cpu.icache.demandAccesses::cpu.inst    338594969                       # number of demand (read+write) accesses (Count)
system.cpu.icache.demandAccesses::total     338594969                       # number of demand (read+write) accesses (Count)
system.cpu.icache.overallAccesses::cpu.inst    338594969                       # number of overall (read+write) accesses (Count)
system.cpu.icache.overallAccesses::total    338594969                       # number of overall (read+write) accesses (Count)
system.cpu.icache.demandMissRate::cpu.inst     0.002958                       # miss rate for demand accesses (Ratio)
system.cpu.icache.demandMissRate::total      0.002958                       # miss rate for demand accesses (Ratio)
system.cpu.icache.overallMissRate::cpu.inst     0.002958                       # miss rate for overall accesses (Ratio)
system.cpu.icache.overallMissRate::total     0.002958                       # miss rate for overall accesses (Ratio)
system.cpu.icache.demandAvgMissLatency::cpu.inst 26342.416655                       # average overall miss latency ((Cycle/Count))
system.cpu.icache.demandAvgMissLatency::total 26342.416655                       # average overall miss latency ((Cycle/Count))
system.cpu.icache.overallAvgMissLatency::cpu.inst 26342.416655                       # average overall miss latency ((Cycle/Count))
system.cpu.icache.overallAvgMissLatency::total 26342.416655                       # average overall miss latency ((Cycle/Count))
system.cpu.icache.blockedCycles::no_mshrs            0                       # number of cycles access was blocked (Cycle)
system.cpu.icache.blockedCycles::no_targets            0                       # number of cycles access was blocked (Cycle)
system.cpu.icache.blockedCauses::no_mshrs            0                       # number of times access was blocked (Count)
system.cpu.icache.blockedCauses::no_targets            0                       # number of times access was blocked (Count)
system.cpu.icache.avgBlocked::no_mshrs            nan                       # average number of cycles each access was blocked ((Cycle/Count))
system.cpu.icache.avgBlocked::no_targets          nan                       # average number of cycles each access was blocked ((Cycle/Count))
system.cpu.icache.demandMshrMisses::cpu.inst      1001616                       # number of demand (read+write) MSHR misses (Count)
system.cpu.icache.demandMshrMisses::total      1001616                       # number of demand (read+write) MSHR misses (Count)
system.cpu.icache.overallMshrMisses::cpu.inst      1001616                       # number of overall MSHR misses (Count)
system.cpu.icache.overallMshrMisses::total      1001616                       # number of overall MSHR misses (Count)
system.cpu.icache.demandMshrMissLatency::cpu.inst  22378522000                       # number of demand (read+write) MSHR miss ticks (Tick)
system.cpu.icache.demandMshrMissLatency::total  22378522000                       # number of demand (read+write) MSHR miss ticks (Tick)
system.cpu.icache.overallMshrMissLatency::cpu.inst  22378522000                       # number of overall MSHR miss ticks (Tick)
system.cpu.icache.overallMshrMissLatency::total  22378522000                       # number of overall MSHR miss ticks (Tick)
system.cpu.icache.demandMshrMissRate::cpu.inst     0.002958                       # mshr miss ratio for demand accesses (Ratio)
system.cpu.icache.demandMshrMissRate::total     0.002958                       # mshr miss ratio for demand accesses (Ratio)
system.cpu.icache.overallMshrMissRate::cpu.inst     0.002958                       # mshr miss ratio for overall accesses (Ratio)
system.cpu.icache.overallMshrMissRate::total     0.002958                       # mshr miss ratio for overall accesses (Ratio)
system.cpu.icache.demandAvgMshrMissLatency::cpu.inst 22342.416655                       # average overall mshr miss latency ((Cycle/Count))
system.cpu.icache.demandAvgMshrMissLatency::total 22342.416655                       # average overall mshr miss latency ((Cycle/Count))
system.cpu.icache.overallAvgMshrMissLatency::cpu.inst 22342.416655                       # average overall mshr miss latency ((Cycle/Count))
system.cpu.icache.overallAvgMshrMissLatency::total 22342.416655                       # average overall mshr miss latency ((Cycle/Count))
system.cpu.icache.replacements                1001600                       # number of replacements (Count)
system.cpu.icache.ReadReq.hits::cpu.inst    337593353                       # number of ReadReq hits (Count)
system.cpu.icache.ReadReq.hits::total       337593353                       # number of ReadReq hits (Count)
system.cpu.icache.ReadReq.misses::cpu.inst      1001616                       # number of ReadReq misses (Count)
system.cpu.icache.ReadReq.misses::total       1001616                       # number of ReadReq misses (Count)
system.cpu.icache.ReadReq.missLatency::cpu.inst  26384986000                       # number of ReadReq miss ticks (Tick)
system.cpu.icache.ReadReq.missLatency::total  26384986000                       # number of ReadReq miss ticks (Tick)
system.cpu.icache.ReadReq.accesses::cpu.inst    338594969                       # number of ReadReq accesses(hits+misses) (Count)
system.cpu.icache.ReadReq.accesses::total    338594969                       # number of ReadReq accesses(hits+misses) (Count)
system.cpu.icache.ReadReq.missRate::cpu.inst     0.002958                       # miss rate for ReadReq accesses (Ratio)
system.cpu.icache.ReadReq.missRate::total     0.002958                       # miss rate for ReadReq accesses (Ratio)
system.cpu.icache.ReadReq.avgMissLatency::cpu.inst 26342.416655                       # average ReadReq miss latency ((Tick/Count))
system.cpu.icache.ReadReq.avgMissLatency::total 26342.416655                       # average ReadReq miss latency ((Tick/Count))
system.cpu.icache.ReadReq.mshrMisses::cpu.inst      1001616                       # number of ReadReq MSHR misses (Count)
system.cpu.icache.ReadReq.mshrMisses::total      1001616                       # number of ReadReq MSHR misses (Count)
system.cpu.icache.ReadReq.mshrMissLatency::cpu.inst  22378522000                       # number of ReadReq MSHR miss ticks (Tick)
system.cpu.icache.ReadReq.mshrMissLatency::total  22378522000                       # number of ReadReq MSHR miss ticks (Tick)
system.cpu.icache.ReadReq.mshrMissRate::cpu.inst     0.002958                       # mshr miss rate for ReadReq accesses (Ratio)
system.cpu.icache.ReadReq.mshrMissRate::total     0.002958                       # mshr miss rate for ReadReq accesses (Ratio)
system.cpu.icache.ReadReq.avgMshrMissLatency::cpu.inst 22342.416655                       # average ReadReq mshr miss latency ((Tick/Count))
system.cpu.icache.ReadReq.avgMshrMissLatency::total 22342.416655                       # average ReadReq mshr miss latency ((Tick/Count))
system.cpu.icache.power_state.pwrStateResidencyTicks::UNDEFINED 2115776258000                       # Cumulative time (in ticks) in various power states (Tick)
system.cpu.icache.tags.tagsInUse            15.999931                       # Average ticks per tags in use ((Tick/Count))
system.cpu.icache.tags.totalRefs            338594969                       # Total number of references to valid blocks. (Count)
system.cpu.icache.tags.sampledRefs            1001616                       # Sample count of references to valid blocks. (Count)
system.cpu.icache.tags.avgRefs             338.048682                       # Average number of references to valid blocks. ((Count/Count))
system.cpu.icache.tags.warmupTick              233000                       # The tick when the warmup percentage was hit. (Tick)
system.cpu.icache.tags.occupancies::cpu.inst    15.999931                       # Average occupied blocks per tick, per requestor ((Count/Tick))
system.cpu.icache.tags.avgOccs::cpu.inst     0.999996                       # Average percentage of cache occupancy ((Ratio/Tick))
system.cpu.icache.tags.avgOccs::total        0.999996                       # Average percentage of cache occupancy ((Ratio/Tick))
system.cpu.icache.tags.occupanciesTaskId::1024           16                       # Occupied blocks per task id (Count)
system.cpu.icache.tags.ageTaskId_1024::0           13                       # Occupied blocks per task id, per block age (Count)
system.cpu.icache.tags.ageTaskId_1024::1            3                       # Occupied blocks per task id, per block age (Count)
system.cpu.icache.tags.ratioOccsTaskId::1024            1                       # Ratio of occupied blocks and all blocks, per task id (Ratio)
system.cpu.icache.tags.tagAccesses          339596585                       # Number of tag accesses (Count)
system.cpu.icache.tags.dataAccesses         339596585                       # Number of data accesses (Count)
system.cpu.icache.tags.power_state.pwrStateResidencyTicks::UNDEFINED 2115776258000                       # Cumulative time (in ticks) in various power states (Tick)
system.cpu.power_state.pwrStateResidencyTicks::ON 2115776258000                       # Cumulative time (in ticks) in various power states (Tick)
system.cpu.thread_0.numInsts                        0                       # Number of Instructions committed (Count)
system.cpu.thread_0.numOps                          0                       # Number of Ops committed (Count)
system.cpu.thread_0.numMemRefs                      0                       # Number of Memory References (Count)
system.cpu.workload.numSyscalls                     9                       # Number of system calls (Count)
system.l2bus.transDist::ReadResp              4422296                       # Transaction distribution (Count)
system.l2bus.transDist::WritebackDirty        5126844                       # Transaction distribution (Count)
system.l2bus.transDist::CleanEvict            2982512                       # Transaction distribution (Count)
system.l2bus.transDist::UpgradeReq              30596                       # Transaction distribution (Count)
system.l2bus.transDist::UpgradeResp             30596                       # Transaction distribution (Count)
system.l2bus.transDist::ReadExReq             1841000                       # Transaction distribution (Count)
system.l2bus.transDist::ReadExResp            1841000                       # Transaction distribution (Count)
system.l2bus.transDist::ReadSharedReq         4422296                       # Transaction distribution (Count)
system.l2bus.pktCount_system.cpu.icache.mem_side_port::system.l2cache.cpu_side_port      3004832                       # Packet count per connected requestor and responder (Count)
system.l2bus.pktCount_system.cpu.dcache.mem_side_port::system.l2cache.cpu_side_port     15846200                       # Packet count per connected requestor and responder (Count)
system.l2bus.pktCount::total                 18851032                       # Packet count per connected requestor and responder (Count)
system.l2bus.pktSize_system.cpu.icache.mem_side_port::system.l2cache.cpu_side_port     64103424                       # Cumulative packet size per connected requestor and responder (Byte)
system.l2bus.pktSize_system.cpu.dcache.mem_side_port::system.l2cache.cpu_side_port    608409536                       # Cumulative packet size per connected requestor and responder (Byte)
system.l2bus.pktSize::total                 672512960                       # Cumulative packet size per connected requestor and responder (Byte)
system.l2bus.snoops                           1846108                       # Total snoops (Count)
system.l2bus.snoopTraffic                    56456000                       # Total snoop traffic (Byte)
system.l2bus.snoopFanout::samples             8140000                       # Request fanout histogram (Count)
system.l2bus.snoopFanout::mean               0.087784                       # Request fanout histogram (Count)
system.l2bus.snoopFanout::stdev              0.282980                       # Request fanout histogram (Count)
system.l2bus.snoopFanout::underflows                0      0.00%      0.00% # Request fanout histogram (Count)
system.l2bus.snoopFanout::0                   7425441     91.22%     91.22% # Request fanout histogram (Count)
system.l2bus.snoopFanout::1                    714559      8.78%    100.00% # Request fanout histogram (Count)
system.l2bus.snoopFanout::2                         0      0.00%    100.00% # Request fanout histogram (Count)
system.l2bus.snoopFanout::overflows                 0      0.00%    100.00% # Request fanout histogram (Count)
system.l2bus.snoopFanout::min_value                 0                       # Request fanout histogram (Count)
system.l2bus.snoopFanout::max_value                 1                       # Request fanout histogram (Count)
system.l2bus.snoopFanout::total               8140000                       # Request fanout histogram (Count)
system.l2bus.power_state.pwrStateResidencyTicks::UNDEFINED 2115776258000                       # Cumulative time (in ticks) in various power states (Tick)
system.l2bus.reqLayer0.occupancy          21046578000                       # Layer occupancy (ticks) (Tick)
system.l2bus.reqLayer0.utilization                0.0                       # Layer utilization (Ratio)
system.l2bus.respLayer0.occupancy          3004848000                       # Layer occupancy (ticks) (Tick)
system.l2bus.respLayer0.utilization               0.0                       # Layer utilization (Ratio)
system.l2bus.respLayer1.occupancy         15815636000                       # Layer occupancy (ticks) (Tick)
system.l2bus.respLayer1.utilization               0.0                       # Layer utilization (Ratio)
system.l2bus.snoop_filter.totRequests        12557140                       # Total number of requests made to the snoop filter. (Count)
system.l2bus.snoop_filter.hitSingleRequests      6293844                       # Number of requests hitting in the snoop filter with a single holder of the requested data. (Count)
system.l2bus.snoop_filter.hitMultiRequests            4                       # Number of requests hitting in the snoop filter with multiple (>1) holders of the requested data. (Count)
system.l2bus.snoop_filter.totSnoops            714555                       # Total number of snoops made to the snoop filter. (Count)
system.l2bus.snoop_filter.hitSingleSnoops       714555                       # Number of snoops hitting in the snoop filter with a single holder of the requested data. (Count)
system.l2bus.snoop_filter.hitMultiSnoops            0                       # Number of snoops hitting in the snoop filter with multiple (>1) holders of the requested data. (Count)
system.l2cache.demandHits::cpu.inst            999720                       # number of demand (read+write) hits (Count)
system.l2cache.demandHits::cpu.data           4269203                       # number of demand (read+write) hits (Count)
system.l2cache.demandHits::total              5268923                       # number of demand (read+write) hits (Count)
system.l2cache.overallHits::cpu.inst           999720                       # number of overall hits (Count)
system.l2cache.overallHits::cpu.data          4269203                       # number of overall hits (Count)
system.l2cache.overallHits::total             5268923                       # number of overall hits (Count)
system.l2cache.demandMisses::cpu.inst            1896                       # number of demand (read+write) misses (Count)
system.l2cache.demandMisses::cpu.data          992477                       # number of demand (read+write) misses (Count)
system.l2cache.demandMisses::total             994373                       # number of demand (read+write) misses (Count)
system.l2cache.overallMisses::cpu.inst           1896                       # number of overall misses (Count)
system.l2cache.overallMisses::cpu.data         992477                       # number of overall misses (Count)
system.l2cache.overallMisses::total            994373                       # number of overall misses (Count)
system.l2cache.demandMissLatency::cpu.inst    375194000                       # number of demand (read+write) miss ticks (Tick)
system.l2cache.demandMissLatency::cpu.data 133854455000                       # number of demand (read+write) miss ticks (Tick)
system.l2cache.demandMissLatency::total  134229649000                       # number of demand (read+write) miss ticks (Tick)
system.l2cache.overallMissLatency::cpu.inst    375194000                       # number of overall miss ticks (Tick)
system.l2cache.overallMissLatency::cpu.data 133854455000                       # number of overall miss ticks (Tick)
system.l2cache.overallMissLatency::total 134229649000                       # number of overall miss ticks (Tick)
system.l2cache.demandAccesses::cpu.inst       1001616                       # number of demand (read+write) accesses (Count)
system.l2cache.demandAccesses::cpu.data       5261680                       # number of demand (read+write) accesses (Count)
system.l2cache.demandAccesses::total          6263296                       # number of demand (read+write) accesses (Count)
system.l2cache.overallAccesses::cpu.inst      1001616                       # number of overall (read+write) accesses (Count)
system.l2cache.overallAccesses::cpu.data      5261680                       # number of overall (read+write) accesses (Count)
system.l2cache.overallAccesses::total         6263296                       # number of overall (read+write) accesses (Count)
system.l2cache.demandMissRate::cpu.inst      0.001893                       # miss rate for demand accesses (Ratio)
system.l2cache.demandMissRate::cpu.data      0.188624                       # miss rate for demand accesses (Ratio)
system.l2cache.demandMissRate::total         0.158762                       # miss rate for demand accesses (Ratio)
system.l2cache.overallMissRate::cpu.inst     0.001893                       # miss rate for overall accesses (Ratio)
system.l2cache.overallMissRate::cpu.data     0.188624                       # miss rate for overall accesses (Ratio)
system.l2cache.overallMissRate::total        0.158762                       # miss rate for overall accesses (Ratio)
system.l2cache.demandAvgMissLatency::cpu.inst 197887.130802                       # average overall miss latency ((Cycle/Count))
system.l2cache.demandAvgMissLatency::cpu.data 134869.075052                       # average overall miss latency ((Cycle/Count))
system.l2cache.demandAvgMissLatency::total 134989.233416                       # average overall miss latency ((Cycle/Count))
system.l2cache.overallAvgMissLatency::cpu.inst 197887.130802                       # average overall miss latency ((Cycle/Count))
system.l2cache.overallAvgMissLatency::cpu.data 134869.075052                       # average overall miss latency ((Cycle/Count))
system.l2cache.overallAvgMissLatency::total 134989.233416                       # average overall miss latency ((Cycle/Count))
system.l2cache.blockedCycles::no_mshrs              0                       # number of cycles access was blocked (Cycle)
system.l2cache.blockedCycles::no_targets            0                       # number of cycles access was blocked (Cycle)
system.l2cache.blockedCauses::no_mshrs              0                       # number of times access was blocked (Count)
system.l2cache.blockedCauses::no_targets            0                       # number of times access was blocked (Count)
system.l2cache.avgBlocked::no_mshrs               nan                       # average number of cycles each access was blocked ((Cycle/Count))
system.l2cache.avgBlocked::no_targets             nan                       # average number of cycles each access was blocked ((Cycle/Count))
system.l2cache.writebacks::writebacks          704096                       # number of writebacks (Count)
system.l2cache.writebacks::total               704096                       # number of writebacks (Count)
system.l2cache.demandMshrMisses::cpu.inst         1896                       # number of demand (read+write) MSHR misses (Count)
system.l2cache.demandMshrMisses::cpu.data       992477                       # number of demand (read+write) MSHR misses (Count)
system.l2cache.demandMshrMisses::total         994373                       # number of demand (read+write) MSHR misses (Count)
system.l2cache.overallMshrMisses::cpu.inst         1896                       # number of overall MSHR misses (Count)
system.l2cache.overallMshrMisses::cpu.data       992477                       # number of overall MSHR misses (Count)
system.l2cache.overallMshrMisses::total        994373                       # number of overall MSHR misses (Count)
system.l2cache.demandMshrMissLatency::cpu.inst    344858000                       # number of demand (read+write) MSHR miss ticks (Tick)
system.l2cache.demandMshrMissLatency::cpu.data 117974823000                       # number of demand (read+write) MSHR miss ticks (Tick)
system.l2cache.demandMshrMissLatency::total 118319681000                       # number of demand (read+write) MSHR miss ticks (Tick)
system.l2cache.overallMshrMissLatency::cpu.inst    344858000                       # number of overall MSHR miss ticks (Tick)
system.l2cache.overallMshrMissLatency::cpu.data 117974823000                       # number of overall MSHR miss ticks (Tick)
system.l2cache.overallMshrMissLatency::total 118319681000                       # number of overall MSHR miss ticks (Tick)
system.l2cache.demandMshrMissRate::cpu.inst     0.001893                       # mshr miss ratio for demand accesses (Ratio)
system.l2cache.demandMshrMissRate::cpu.data     0.188624                       # mshr miss ratio for demand accesses (Ratio)
system.l2cache.demandMshrMissRate::total     0.158762                       # mshr miss ratio for demand accesses (Ratio)
system.l2cache.overallMshrMissRate::cpu.inst     0.001893                       # mshr miss ratio for overall accesses (Ratio)
system.l2cache.overallMshrMissRate::cpu.data     0.188624                       # mshr miss ratio for overall accesses (Ratio)
system.l2cache.overallMshrMissRate::total     0.158762                       # mshr miss ratio for overall accesses (Ratio)
system.l2cache.demandAvgMshrMissLatency::cpu.inst 181887.130802                       # average overall mshr miss latency ((Cycle/Count))
system.l2cache.demandAvgMshrMissLatency::cpu.data 118869.075052                       # average overall mshr miss latency ((Cycle/Count))
system.l2cache.demandAvgMshrMissLatency::total 118989.233416                       # average overall mshr miss latency ((Cycle/Count))
system.l2cache.overallAvgMshrMissLatency::cpu.inst 181887.130802                       # average overall mshr miss latency ((Cycle/Count))
system.l2cache.overallAvgMshrMissLatency::cpu.data 118869.075052                       # average overall mshr miss latency ((Cycle/Count))
system.l2cache.overallAvgMshrMissLatency::total 118989.233416                       # average overall mshr miss latency ((Cycle/Count))
system.l2cache.replacements                   1250358                       # number of replacements (Count)
system.l2cache.CleanEvict.mshrMisses::writebacks       137104                       # number of CleanEvict MSHR misses (Count)
system.l2cache.CleanEvict.mshrMisses::total       137104                       # number of CleanEvict MSHR misses (Count)
system.l2cache.CleanEvict.mshrMissRate::writebacks          inf                       # mshr miss rate for CleanEvict accesses (Ratio)
system.l2cache.CleanEvict.mshrMissRate::total          inf                       # mshr miss rate for CleanEvict accesses (Ratio)
system.l2cache.ReadExReq.hits::cpu.data       1440936                       # number of ReadExReq hits (Count)
system.l2cache.ReadExReq.hits::total          1440936                       # number of ReadExReq hits (Count)
system.l2cache.ReadExReq.misses::cpu.data       400064                       # number of ReadExReq misses (Count)
system.l2cache.ReadExReq.misses::total         400064                       # number of ReadExReq misses (Count)
system.l2cache.ReadExReq.missLatency::cpu.data  65200934000                       # number of ReadExReq miss ticks (Tick)
system.l2cache.ReadExReq.missLatency::total  65200934000                       # number of ReadExReq miss ticks (Tick)
system.l2cache.ReadExReq.accesses::cpu.data      1841000                       # number of ReadExReq accesses(hits+misses) (Count)
system.l2cache.ReadExReq.accesses::total      1841000                       # number of ReadExReq accesses(hits+misses) (Count)
system.l2cache.ReadExReq.missRate::cpu.data     0.217308                       # miss rate for ReadExReq accesses (Ratio)
system.l2cache.ReadExReq.missRate::total     0.217308                       # miss rate for ReadExReq accesses (Ratio)
system.l2cache.ReadExReq.avgMissLatency::cpu.data 162976.258799                       # average ReadExReq miss latency ((Tick/Count))
system.l2cache.ReadExReq.avgMissLatency::total 162976.258799                       # average ReadExReq miss latency ((Tick/Count))
system.l2cache.ReadExReq.mshrMisses::cpu.data       400064                       # number of ReadExReq MSHR misses (Count)
system.l2cache.ReadExReq.mshrMisses::total       400064                       # number of ReadExReq MSHR misses (Count)
system.l2cache.ReadExReq.mshrMissLatency::cpu.data  58799910000                       # number of ReadExReq MSHR miss ticks (Tick)
system.l2cache.ReadExReq.mshrMissLatency::total  58799910000                       # number of ReadExReq MSHR miss ticks (Tick)
system.l2cache.ReadExReq.mshrMissRate::cpu.data     0.217308                       # mshr miss rate for ReadExReq accesses (Ratio)
system.l2cache.ReadExReq.mshrMissRate::total     0.217308                       # mshr miss rate for ReadExReq accesses (Ratio)
system.l2cache.ReadExReq.avgMshrMissLatency::cpu.data 146976.258799                       # average ReadExReq mshr miss latency ((Tick/Count))
system.l2cache.ReadExReq.avgMshrMissLatency::total 146976.258799                       # average ReadExReq mshr miss latency ((Tick/Count))
system.l2cache.ReadSharedReq.hits::cpu.inst       999720                       # number of ReadSharedReq hits (Count)
system.l2cache.ReadSharedReq.hits::cpu.data      2828267                       # number of ReadSharedReq hits (Count)
system.l2cache.ReadSharedReq.hits::total      3827987                       # number of ReadSharedReq hits (Count)
system.l2cache.ReadSharedReq.misses::cpu.inst         1896                       # number of ReadSharedReq misses (Count)
system.l2cache.ReadSharedReq.misses::cpu.data       592413                       # number of ReadSharedReq misses (Count)
system.l2cache.ReadSharedReq.misses::total       594309                       # number of ReadSharedReq misses (Count)
system.l2cache.ReadSharedReq.missLatency::cpu.inst    375194000                       # number of ReadSharedReq miss ticks (Tick)
system.l2cache.ReadSharedReq.missLatency::cpu.data  68653521000                       # number of ReadSharedReq miss ticks (Tick)
system.l2cache.ReadSharedReq.missLatency::total  69028715000                       # number of ReadSharedReq miss ticks (Tick)
system.l2cache.ReadSharedReq.accesses::cpu.inst      1001616                       # number of ReadSharedReq accesses(hits+misses) (Count)
system.l2cache.ReadSharedReq.accesses::cpu.data      3420680                       # number of ReadSharedReq accesses(hits+misses) (Count)
system.l2cache.ReadSharedReq.accesses::total      4422296                       # number of ReadSharedReq accesses(hits+misses) (Count)
system.l2cache.ReadSharedReq.missRate::cpu.inst     0.001893                       # miss rate for ReadSharedReq accesses (Ratio)
system.l2cache.ReadSharedReq.missRate::cpu.data     0.173186                       # miss rate for ReadSharedReq accesses (Ratio)
system.l2cache.ReadSharedReq.missRate::total     0.134389                       # miss rate for ReadSharedReq accesses (Ratio)
system.l2cache.ReadSharedReq.avgMissLatency::cpu.inst 197887.130802                       # average ReadSharedReq miss latency ((Tick/Count))
system.l2cache.ReadSharedReq.avgMissLatency::cpu.data 115887.937976                       # average ReadSharedReq miss latency ((Tick/Count))
system.l2cache.ReadSharedReq.avgMissLatency::total 116149.536689                       # average ReadSharedReq miss latency ((Tick/Count))
system.l2cache.ReadSharedReq.mshrMisses::cpu.inst         1896                       # number of ReadSharedReq MSHR misses (Count)
system.l2cache.ReadSharedReq.mshrMisses::cpu.data       592413                       # number of ReadSharedReq MSHR misses (Count)
system.l2cache.ReadSharedReq.mshrMisses::total       594309                       # number of ReadSharedReq MSHR misses (Count)
system.l2cache.ReadSharedReq.mshrMissLatency::cpu.inst    344858000                       # number of ReadSharedReq MSHR miss ticks (Tick)
system.l2cache.ReadSharedReq.mshrMissLatency::cpu.data  59174913000                       # number of ReadSharedReq MSHR miss ticks (Tick)
system.l2cache.ReadSharedReq.mshrMissLatency::total  59519771000                       # number of ReadSharedReq MSHR miss ticks (Tick)
system.l2cache.ReadSharedReq.mshrMissRate::cpu.inst     0.001893                       # mshr miss rate for ReadSharedReq accesses (Ratio)
system.l2cache.ReadSharedReq.mshrMissRate::cpu.data     0.173186                       # mshr miss rate for ReadSharedReq accesses (Ratio)
system.l2cache.ReadSharedReq.mshrMissRate::total     0.134389                       # mshr miss rate for ReadSharedReq accesses (Ratio)
system.l2cache.ReadSharedReq.avgMshrMissLatency::cpu.inst 181887.130802                       # average ReadSharedReq mshr miss latency ((Tick/Count))
system.l2cache.ReadSharedReq.avgMshrMissLatency::cpu.data 99887.937976                       # average ReadSharedReq mshr miss latency ((Tick/Count))
system.l2cache.ReadSharedReq.avgMshrMissLatency::total 100149.536689                       # average ReadSharedReq mshr miss latency ((Tick/Count))
system.l2cache.UpgradeReq.hits::cpu.data        15626                       # number of UpgradeReq hits (Count)
system.l2cache.UpgradeReq.hits::total           15626                       # number of UpgradeReq hits (Count)
system.l2cache.UpgradeReq.misses::cpu.data        14970                       # number of UpgradeReq misses (Count)
system.l2cache.UpgradeReq.misses::total         14970                       # number of UpgradeReq misses (Count)
system.l2cache.UpgradeReq.missLatency::cpu.data   1405360000                       # number of UpgradeReq miss ticks (Tick)
system.l2cache.UpgradeReq.missLatency::total   1405360000                       # number of UpgradeReq miss ticks (Tick)
system.l2cache.UpgradeReq.accesses::cpu.data        30596                       # number of UpgradeReq accesses(hits+misses) (Count)
system.l2cache.UpgradeReq.accesses::total        30596                       # number of UpgradeReq accesses(hits+misses) (Count)
system.l2cache.UpgradeReq.missRate::cpu.data     0.489280                       # miss rate for UpgradeReq accesses (Ratio)
system.l2cache.UpgradeReq.missRate::total     0.489280                       # miss rate for UpgradeReq accesses (Ratio)
system.l2cache.UpgradeReq.avgMissLatency::cpu.data 93878.423514                       # average UpgradeReq miss latency ((Tick/Count))
system.l2cache.UpgradeReq.avgMissLatency::total 93878.423514                       # average UpgradeReq miss latency ((Tick/Count))
system.l2cache.UpgradeReq.mshrMisses::cpu.data        14970                       # number of UpgradeReq MSHR misses (Count)
system.l2cache.UpgradeReq.mshrMisses::total        14970                       # number of UpgradeReq MSHR misses (Count)
system.l2cache.UpgradeReq.mshrMissLatency::cpu.data   1190464000                       # number of UpgradeReq MSHR miss ticks (Tick)
system.l2cache.UpgradeReq.mshrMissLatency::total   1190464000                       # number of UpgradeReq MSHR miss ticks (Tick)
system.l2cache.UpgradeReq.mshrMissRate::cpu.data     0.489280                       # mshr miss rate for UpgradeReq accesses (Ratio)
system.l2cache.UpgradeReq.mshrMissRate::total     0.489280                       # mshr miss rate for UpgradeReq accesses (Ratio)
system.l2cache.UpgradeReq.avgMshrMissLatency::cpu.data 79523.313293                       # average UpgradeReq mshr miss latency ((Tick/Count))
system.l2cache.UpgradeReq.avgMshrMissLatency::total 79523.313293                       # average UpgradeReq mshr miss latency ((Tick/Count))
system.l2cache.WritebackDirty.hits::writebacks      4244719                       # number of WritebackDirty hits (Count)
system.l2cache.WritebackDirty.hits::total      4244719                       # number of WritebackDirty hits (Count)
system.l2cache.WritebackDirty.accesses::writebacks      4244719                       # number of WritebackDirty accesses(hits+misses) (Count)
system.l2cache.WritebackDirty.accesses::total      4244719                       # number of WritebackDirty accesses(hits+misses) (Count)
system.l2cache.power_state.pwrStateResidencyTicks::UNDEFINED 2115776258000                       # Cumulative time (in ticks) in various power states (Tick)
system.l2cache.tags.tagsInUse              255.980224                       # Average ticks per tags in use ((Tick/Count))
system.l2cache.tags.totalRefs                12419690                       # Total number of references to valid blocks. (Count)
system.l2cache.tags.sampledRefs               1250614                       # Sample count of references to valid blocks. (Count)
system.l2cache.tags.avgRefs                  9.930874                       # Average number of references to valid blocks. ((Count/Count))
system.l2cache.tags.warmupTick                 216000                       # The tick when the warmup percentage was hit. (Tick)
system.l2cache.tags.occupancies::writebacks    10.070662                       # Average occupied blocks per tick, per requestor ((Count/Tick))
system.l2cache.tags.occupancies::cpu.inst     0.665693                       # Average occupied blocks per tick, per requestor ((Count/Tick))
system.l2cache.tags.occupancies::cpu.data   245.243869                       # Average occupied blocks per tick, per requestor ((Count/Tick))
system.l2cache.tags.avgOccs::writebacks      0.039339                       # Average percentage of cache occupancy ((Ratio/Tick))
system.l2cache.tags.avgOccs::cpu.inst        0.002600                       # Average percentage of cache occupancy ((Ratio/Tick))
system.l2cache.tags.avgOccs::cpu.data        0.957984                       # Average percentage of cache occupancy ((Ratio/Tick))
system.l2cache.tags.avgOccs::total           0.999923                       # Average percentage of cache occupancy ((Ratio/Tick))
system.l2cache.tags.occupanciesTaskId::1024          256                       # Occupied blocks per task id (Count)
system.l2cache.tags.ageTaskId_1024::0              25                       # Occupied blocks per task id, per block age (Count)
system.l2cache.tags.ageTaskId_1024::1              72                       # Occupied blocks per task id, per block age (Count)
system.l2cache.tags.ageTaskId_1024::2             159                       # Occupied blocks per task id, per block age (Count)
system.l2cache.tags.ratioOccsTaskId::1024            1                       # Ratio of occupied blocks and all blocks, per task id (Ratio)
system.l2cache.tags.tagAccesses              13807750                       # Number of tag accesses (Count)
system.l2cache.tags.dataAccesses             13807750                       # Number of data accesses (Count)
system.l2cache.tags.power_state.pwrStateResidencyTicks::UNDEFINED 2115776258000                       # Cumulative time (in ticks) in various power states (Tick)
system.l3bus.transDist::ReadResp               594309                       # Transaction distribution (Count)
system.l3bus.transDist::WritebackDirty        1279934                       # Transaction distribution (Count)
system.l3bus.transDist::CleanEvict             948179                       # Transaction distribution (Count)
system.l3bus.transDist::UpgradeReq              37524                       # Transaction distribution (Count)
system.l3bus.transDist::UpgradeResp             37524                       # Transaction distribution (Count)
system.l3bus.transDist::ReadExReq              377510                       # Transaction distribution (Count)
system.l3bus.transDist::ReadExResp             377510                       # Transaction distribution (Count)
system.l3bus.transDist::ReadSharedReq          594309                       # Transaction distribution (Count)
system.l3bus.pktCount_system.l2cache.mem_side_port::system.l3cache.cpu_side_port      3085593                       # Packet count per connected requestor and responder (Count)
system.l3bus.pktSize_system.l2cache.mem_side_port::system.l3cache.cpu_side_port    107258560                       # Cumulative packet size per connected requestor and responder (Byte)
system.l3bus.snoops                           1161206                       # Total snoops (Count)
system.l3bus.snoopTraffic                    36853632                       # Total snoop traffic (Byte)
system.l3bus.snoopFanout::samples             2170549                       # Request fanout histogram (Count)
system.l3bus.snoopFanout::mean               0.321444                       # Request fanout histogram (Count)
system.l3bus.snoopFanout::stdev              0.467031                       # Request fanout histogram (Count)
system.l3bus.snoopFanout::underflows                0      0.00%      0.00% # Request fanout histogram (Count)
system.l3bus.snoopFanout::0                   1472840     67.86%     67.86% # Request fanout histogram (Count)
system.l3bus.snoopFanout::1                    697709     32.14%    100.00% # Request fanout histogram (Count)
system.l3bus.snoopFanout::overflows                 0      0.00%    100.00% # Request fanout histogram (Count)
system.l3bus.snoopFanout::min_value                 0                       # Request fanout histogram (Count)
system.l3bus.snoopFanout::max_value                 1                       # Request fanout histogram (Count)
system.l3bus.snoopFanout::total               2170549                       # Request fanout histogram (Count)
system.l3bus.power_state.pwrStateResidencyTicks::UNDEFINED 2115776258000                       # Cumulative time (in ticks) in various power states (Tick)
system.l3bus.reqLayer0.occupancy           3484442000                       # Layer occupancy (ticks) (Tick)
system.l3bus.reqLayer0.utilization                0.0                       # Layer utilization (Ratio)
system.l3bus.respLayer0.occupancy          2952981000                       # Layer occupancy (ticks) (Tick)
system.l3bus.respLayer0.utilization               0.0                       # Layer utilization (Ratio)
system.l3bus.snoop_filter.totRequests         2076250                       # Total number of requests made to the snoop filter. (Count)
system.l3bus.snoop_filter.hitSingleRequests      1104431                       # Number of requests hitting in the snoop filter with a single holder of the requested data. (Count)
system.l3bus.snoop_filter.hitMultiRequests            0                       # Number of requests hitting in the snoop filter with multiple (>1) holders of the requested data. (Count)
system.l3bus.snoop_filter.totSnoops            697709                       # Total number of snoops made to the snoop filter. (Count)
system.l3bus.snoop_filter.hitSingleSnoops       697709                       # Number of snoops hitting in the snoop filter with a single holder of the requested data. (Count)
system.l3bus.snoop_filter.hitMultiSnoops            0                       # Number of snoops hitting in the snoop filter with multiple (>1) holders of the requested data. (Count)
system.l3cache.demandHits::cpu.inst               265                       # number of demand (read+write) hits (Count)
system.l3cache.demandHits::cpu.data            347361                       # number of demand (read+write) hits (Count)
system.l3cache.demandHits::total               347626                       # number of demand (read+write) hits (Count)
system.l3cache.overallHits::cpu.inst              265                       # number of overall hits (Count)
system.l3cache.overallHits::cpu.data           347361                       # number of overall hits (Count)
system.l3cache.overallHits::total              347626                       # number of overall hits (Count)
system.l3cache.demandMisses::cpu.inst            1631                       # number of demand (read+write) misses (Count)
system.l3cache.demandMisses::cpu.data          622562                       # number of demand (read+write) misses (Count)
system.l3cache.demandMisses::total             624193                       # number of demand (read+write) misses (Count)
system.l3cache.overallMisses::cpu.inst           1631                       # number of overall misses (Count)
system.l3cache.overallMisses::cpu.data         622562                       # number of overall misses (Count)
system.l3cache.overallMisses::total            624193                       # number of overall misses (Count)
system.l3cache.demandMissLatency::cpu.inst    300660000                       # number of demand (read+write) miss ticks (Tick)
system.l3cache.demandMissLatency::cpu.data  85061665000                       # number of demand (read+write) miss ticks (Tick)
system.l3cache.demandMissLatency::total   85362325000                       # number of demand (read+write) miss ticks (Tick)
system.l3cache.overallMissLatency::cpu.inst    300660000                       # number of overall miss ticks (Tick)
system.l3cache.overallMissLatency::cpu.data  85061665000                       # number of overall miss ticks (Tick)
system.l3cache.overallMissLatency::total  85362325000                       # number of overall miss ticks (Tick)
system.l3cache.demandAccesses::cpu.inst          1896                       # number of demand (read+write) accesses (Count)
system.l3cache.demandAccesses::cpu.data        969923                       # number of demand (read+write) accesses (Count)
system.l3cache.demandAccesses::total           971819                       # number of demand (read+write) accesses (Count)
system.l3cache.overallAccesses::cpu.inst         1896                       # number of overall (read+write) accesses (Count)
system.l3cache.overallAccesses::cpu.data       969923                       # number of overall (read+write) accesses (Count)
system.l3cache.overallAccesses::total          971819                       # number of overall (read+write) accesses (Count)
system.l3cache.demandMissRate::cpu.inst      0.860232                       # miss rate for demand accesses (Ratio)
system.l3cache.demandMissRate::cpu.data      0.641867                       # miss rate for demand accesses (Ratio)
system.l3cache.demandMissRate::total         0.642293                       # miss rate for demand accesses (Ratio)
system.l3cache.overallMissRate::cpu.inst     0.860232                       # miss rate for overall accesses (Ratio)
system.l3cache.overallMissRate::cpu.data     0.641867                       # miss rate for overall accesses (Ratio)
system.l3cache.overallMissRate::total        0.642293                       # miss rate for overall accesses (Ratio)
system.l3cache.demandAvgMissLatency::cpu.inst 184340.895156                       # average overall miss latency ((Cycle/Count))
system.l3cache.demandAvgMissLatency::cpu.data 136631.636688                       # average overall miss latency ((Cycle/Count))
system.l3cache.demandAvgMissLatency::total 136756.299734                       # average overall miss latency ((Cycle/Count))
system.l3cache.overallAvgMissLatency::cpu.inst 184340.895156                       # average overall miss latency ((Cycle/Count))
system.l3cache.overallAvgMissLatency::cpu.data 136631.636688                       # average overall miss latency ((Cycle/Count))
system.l3cache.overallAvgMissLatency::total 136756.299734                       # average overall miss latency ((Cycle/Count))
system.l3cache.blockedCycles::no_mshrs              0                       # number of cycles access was blocked (Cycle)
system.l3cache.blockedCycles::no_targets            0                       # number of cycles access was blocked (Cycle)
system.l3cache.blockedCauses::no_mshrs              0                       # number of times access was blocked (Count)
system.l3cache.blockedCauses::no_targets            0                       # number of times access was blocked (Count)
system.l3cache.avgBlocked::no_mshrs               nan                       # average number of cycles each access was blocked ((Cycle/Count))
system.l3cache.avgBlocked::no_targets             nan                       # average number of cycles each access was blocked ((Cycle/Count))
system.l3cache.writebacks::writebacks          572928                       # number of writebacks (Count)
system.l3cache.writebacks::total               572928                       # number of writebacks (Count)
system.l3cache.demandMshrMisses::cpu.inst         1631                       # number of demand (read+write) MSHR misses (Count)
system.l3cache.demandMshrMisses::cpu.data       622562                       # number of demand (read+write) MSHR misses (Count)
system.l3cache.demandMshrMisses::total         624193                       # number of demand (read+write) MSHR misses (Count)
system.l3cache.overallMshrMisses::cpu.inst         1631                       # number of overall MSHR misses (Count)
system.l3cache.overallMshrMisses::cpu.data       622562                       # number of overall MSHR misses (Count)
system.l3cache.overallMshrMisses::total        624193                       # number of overall MSHR misses (Count)
system.l3cache.demandMshrMissLatency::cpu.inst    240313000                       # number of demand (read+write) MSHR miss ticks (Tick)
system.l3cache.demandMshrMissLatency::cpu.data  62026871000                       # number of demand (read+write) MSHR miss ticks (Tick)
system.l3cache.demandMshrMissLatency::total  62267184000                       # number of demand (read+write) MSHR miss ticks (Tick)
system.l3cache.overallMshrMissLatency::cpu.inst    240313000                       # number of overall MSHR miss ticks (Tick)
system.l3cache.overallMshrMissLatency::cpu.data  62026871000                       # number of overall MSHR miss ticks (Tick)
system.l3cache.overallMshrMissLatency::total  62267184000                       # number of overall MSHR miss ticks (Tick)
system.l3cache.demandMshrMissRate::cpu.inst     0.860232                       # mshr miss ratio for demand accesses (Ratio)
system.l3cache.demandMshrMissRate::cpu.data     0.641867                       # mshr miss ratio for demand accesses (Ratio)
system.l3cache.demandMshrMissRate::total     0.642293                       # mshr miss ratio for demand accesses (Ratio)
system.l3cache.overallMshrMissRate::cpu.inst     0.860232                       # mshr miss ratio for overall accesses (Ratio)
system.l3cache.overallMshrMissRate::cpu.data     0.641867                       # mshr miss ratio for overall accesses (Ratio)
system.l3cache.overallMshrMissRate::total     0.642293                       # mshr miss ratio for overall accesses (Ratio)
system.l3cache.demandAvgMshrMissLatency::cpu.inst 147340.895156                       # average overall mshr miss latency ((Cycle/Count))
system.l3cache.demandAvgMshrMissLatency::cpu.data 99631.636688                       # average overall mshr miss latency ((Cycle/Count))
system.l3cache.demandAvgMshrMissLatency::total 99756.299734                       # average overall mshr miss latency ((Cycle/Count))
system.l3cache.overallAvgMshrMissLatency::cpu.inst 147340.895156                       # average overall mshr miss latency ((Cycle/Count))
system.l3cache.overallAvgMshrMissLatency::cpu.data 99631.636688                       # average overall mshr miss latency ((Cycle/Count))
system.l3cache.overallAvgMshrMissLatency::total 99756.299734                       # average overall mshr miss latency ((Cycle/Count))
system.l3cache.replacements                    971407                       # number of replacements (Count)
system.l3cache.CleanEvict.mshrMisses::writebacks       211130                       # number of CleanEvict MSHR misses (Count)
system.l3cache.CleanEvict.mshrMisses::total       211130                       # number of CleanEvict MSHR misses (Count)
system.l3cache.CleanEvict.mshrMissRate::writebacks          inf                       # mshr miss rate for CleanEvict accesses (Ratio)
system.l3cache.CleanEvict.mshrMissRate::total          inf                       # mshr miss rate for CleanEvict accesses (Ratio)
system.l3cache.ReadExReq.hits::cpu.data         53387                       # number of ReadExReq hits (Count)
system.l3cache.ReadExReq.hits::total            53387                       # number of ReadExReq hits (Count)
system.l3cache.ReadExReq.misses::cpu.data       324123                       # number of ReadExReq misses (Count)
system.l3cache.ReadExReq.misses::total         324123                       # number of ReadExReq misses (Count)
system.l3cache.ReadExReq.missLatency::cpu.data  47724980000                       # number of ReadExReq miss ticks (Tick)
system.l3cache.ReadExReq.missLatency::total  47724980000                       # number of ReadExReq miss ticks (Tick)
system.l3cache.ReadExReq.accesses::cpu.data       377510                       # number of ReadExReq accesses(hits+misses) (Count)
system.l3cache.ReadExReq.accesses::total       377510                       # number of ReadExReq accesses(hits+misses) (Count)
system.l3cache.ReadExReq.missRate::cpu.data     0.858581                       # miss rate for ReadExReq accesses (Ratio)
system.l3cache.ReadExReq.missRate::total     0.858581                       # miss rate for ReadExReq accesses (Ratio)
system.l3cache.ReadExReq.avgMissLatency::cpu.data 147243.423022                       # average ReadExReq miss latency ((Tick/Count))
system.l3cache.ReadExReq.avgMissLatency::total 147243.423022                       # average ReadExReq miss latency ((Tick/Count))
system.l3cache.ReadExReq.mshrMisses::cpu.data       324123                       # number of ReadExReq MSHR misses (Count)
system.l3cache.ReadExReq.mshrMisses::total       324123                       # number of ReadExReq MSHR misses (Count)
system.l3cache.ReadExReq.mshrMissLatency::cpu.data  35732429000                       # number of ReadExReq MSHR miss ticks (Tick)
system.l3cache.ReadExReq.mshrMissLatency::total  35732429000                       # number of ReadExReq MSHR miss ticks (Tick)
system.l3cache.ReadExReq.mshrMissRate::cpu.data     0.858581                       # mshr miss rate for ReadExReq accesses (Ratio)
system.l3cache.ReadExReq.mshrMissRate::total     0.858581                       # mshr miss rate for ReadExReq accesses (Ratio)
system.l3cache.ReadExReq.avgMshrMissLatency::cpu.data 110243.423022                       # average ReadExReq mshr miss latency ((Tick/Count))
system.l3cache.ReadExReq.avgMshrMissLatency::total 110243.423022                       # average ReadExReq mshr miss latency ((Tick/Count))
[...]
system.mem_ctrl.dram.bytesInstRead::total        96256                       # Number of instructions bytes read from this memory (Byte)
system.mem_ctrl.dram.bytesWritten::writebacks     10253568                       # Number of bytes written to this memory (Byte)
system.mem_ctrl.dram.bytesWritten::total     10253568                       # Number of bytes written to this memory (Byte)
system.mem_ctrl.dram.numReads::cpu.inst          1504                       # Number of read requests responded to by this memory (Count)
system.mem_ctrl.dram.numReads::cpu.data        227863                       # Number of read requests responded to by this memory (Count)
system.mem_ctrl.dram.numReads::total           229367                       # Number of read requests responded to by this memory (Count)
system.mem_ctrl.dram.numWrites::writebacks       160212                       # Number of write requests responded to by this memory (Count)
system.mem_ctrl.dram.numWrites::total          160212                       # Number of write requests responded to by this memory (Count)
system.mem_ctrl.dram.bwRead::cpu.inst           45494                       # Total read bandwidth from this memory ((Byte/Second))
system.mem_ctrl.dram.bwRead::cpu.data         6892615                       # Total read bandwidth from this memory ((Byte/Second))
system.mem_ctrl.dram.bwRead::total            6938110                       # Total read bandwidth from this memory ((Byte/Second))
system.mem_ctrl.dram.bwInstRead::cpu.inst        45494                       # Instruction read bandwidth from this memory ((Byte/Second))
system.mem_ctrl.dram.bwInstRead::total          45494                       # Instruction read bandwidth from this memory ((Byte/Second))
system.mem_ctrl.dram.bwWrite::writebacks      4846244                       # Write bandwidth from this memory ((Byte/Second))
system.mem_ctrl.dram.bwWrite::total           4846244                       # Write bandwidth from this memory ((Byte/Second))
system.mem_ctrl.dram.bwTotal::writebacks      4846244                       # Total bandwidth to/from this memory ((Byte/Second))
system.mem_ctrl.dram.bwTotal::cpu.inst          45494                       # Total bandwidth to/from this memory ((Byte/Second))
system.mem_ctrl.dram.bwTotal::cpu.data        6892615                       # Total bandwidth to/from this memory ((Byte/Second))
system.mem_ctrl.dram.bwTotal::total          11784354                       # Total bandwidth to/from this memory ((Byte/Second))
system.mem_ctrl.dram.readBursts                217868                       # Number of DRAM read bursts (Count)
system.mem_ctrl.dram.writeBursts               159973                       # Number of DRAM write bursts (Count)
system.mem_ctrl.dram.perBankRdBursts::0         15802                       # Per bank write bursts (Count)
system.mem_ctrl.dram.perBankRdBursts::1         21234                       # Per bank write bursts (Count)
system.mem_ctrl.dram.perBankRdBursts::2         18604                       # Per bank write bursts (Count)
system.mem_ctrl.dram.perBankRdBursts::3          7991                       # Per bank write bursts (Count)
system.mem_ctrl.dram.perBankRdBursts::4          8113                       # Per bank write bursts (Count)
system.mem_ctrl.dram.perBankRdBursts::5          7993                       # Per bank write bursts (Count)
system.mem_ctrl.dram.perBankRdBursts::6          8235                       # Per bank write bursts (Count)
system.mem_ctrl.dram.perBankRdBursts::7          8277                       # Per bank write bursts (Count)
system.mem_ctrl.dram.perBankRdBursts::8         10516                       # Per bank write bursts (Count)
system.mem_ctrl.dram.perBankRdBursts::9         24824                       # Per bank write bursts (Count)
system.mem_ctrl.dram.perBankRdBursts::10        21062                       # Per bank write bursts (Count)
system.mem_ctrl.dram.perBankRdBursts::11        12022                       # Per bank write bursts (Count)
system.mem_ctrl.dram.perBankRdBursts::12        11542                       # Per bank write bursts (Count)
system.mem_ctrl.dram.perBankRdBursts::13        13374                       # Per bank write bursts (Count)
system.mem_ctrl.dram.perBankRdBursts::14        14141                       # Per bank write bursts (Count)
system.mem_ctrl.dram.perBankRdBursts::15        14138                       # Per bank write bursts (Count)
system.mem_ctrl.dram.perBankWrBursts::0         11217                       # Per bank write bursts (Count)
system.mem_ctrl.dram.perBankWrBursts::1         20148                       # Per bank write bursts (Count)
system.mem_ctrl.dram.perBankWrBursts::2         16313                       # Per bank write bursts (Count)
system.mem_ctrl.dram.perBankWrBursts::3          3998                       # Per bank write bursts (Count)
system.mem_ctrl.dram.perBankWrBursts::4          4029                       # Per bank write bursts (Count)
system.mem_ctrl.dram.perBankWrBursts::5          4021                       # Per bank write bursts (Count)
system.mem_ctrl.dram.perBankWrBursts::6          4129                       # Per bank write bursts (Count)
system.mem_ctrl.dram.perBankWrBursts::7          4128                       # Per bank write bursts (Count)
system.mem_ctrl.dram.perBankWrBursts::8          6356                       # Per bank write bursts (Count)
system.mem_ctrl.dram.perBankWrBursts::9         21272                       # Per bank write bursts (Count)
system.mem_ctrl.dram.perBankWrBursts::10        18722                       # Per bank write bursts (Count)
system.mem_ctrl.dram.perBankWrBursts::11         8083                       # Per bank write bursts (Count)
system.mem_ctrl.dram.perBankWrBursts::12         7509                       # Per bank write bursts (Count)
system.mem_ctrl.dram.perBankWrBursts::13         9498                       # Per bank write bursts (Count)
system.mem_ctrl.dram.perBankWrBursts::14        10277                       # Per bank write bursts (Count)
system.mem_ctrl.dram.perBankWrBursts::15        10273                       # Per bank write bursts (Count)
system.mem_ctrl.dram.totQLat               3315304500                       # Total ticks spent queuing (Tick)
system.mem_ctrl.dram.totBusLat             1089340000                       # Total ticks spent in databus transfers (Tick)
system.mem_ctrl.dram.totMemAccLat          7400329500                       # Total ticks spent from burst creation until serviced by the DRAM (Tick)
system.mem_ctrl.dram.avgQLat                 15217.03                       # Average queueing delay per DRAM burst ((Tick/Count))
system.mem_ctrl.dram.avgBusLat                5000.00                       # Average bus latency per DRAM burst ((Tick/Count))
system.mem_ctrl.dram.avgMemAccLat            33967.03                       # Average memory access latency per DRAM burst ((Tick/Count))
system.mem_ctrl.dram.readRowHits                86700                       # Number of row buffer hits during reads (Count)
system.mem_ctrl.dram.writeRowHits              140558                       # Number of row buffer hits during writes (Count)
system.mem_ctrl.dram.readRowHitRate             39.79                       # Row buffer hit rate for reads (Ratio)
system.mem_ctrl.dram.writeRowHitRate            87.86                       # Row buffer hit rate for writes (Ratio)
system.mem_ctrl.dram.bytesPerActivate::samples       150578                       # Bytes accessed per row activation (Byte)
system.mem_ctrl.dram.bytesPerActivate::mean   160.581865                       # Bytes accessed per row activation (Byte)
system.mem_ctrl.dram.bytesPerActivate::gmean   112.673019                       # Bytes accessed per row activation (Byte)
system.mem_ctrl.dram.bytesPerActivate::stdev   199.095496                       # Bytes accessed per row activation (Byte)
system.mem_ctrl.dram.bytesPerActivate::0-127        76604     50.87%     50.87% # Bytes accessed per row activation (Byte)
system.mem_ctrl.dram.bytesPerActivate::128-255        58158     38.62%     89.50% # Bytes accessed per row activation (Byte)
system.mem_ctrl.dram.bytesPerActivate::256-383         4259      2.83%     92.32% # Bytes accessed per row activation (Byte)
system.mem_ctrl.dram.bytesPerActivate::384-511         1946      1.29%     93.62% # Bytes accessed per row activation (Byte)
system.mem_ctrl.dram.bytesPerActivate::512-639         1874      1.24%     94.86% # Bytes accessed per row activation (Byte)
system.mem_ctrl.dram.bytesPerActivate::640-767         1044      0.69%     95.56% # Bytes accessed per row activation (Byte)
system.mem_ctrl.dram.bytesPerActivate::768-895         1116      0.74%     96.30% # Bytes accessed per row activation (Byte)
system.mem_ctrl.dram.bytesPerActivate::896-1023          938      0.62%     96.92% # Bytes accessed per row activation (Byte)
system.mem_ctrl.dram.bytesPerActivate::1024-1151         4639      3.08%    100.00% # Bytes accessed per row activation (Byte)
system.mem_ctrl.dram.bytesPerActivate::total       150578                       # Bytes accessed per row activation (Byte)
system.mem_ctrl.dram.bytesRead               13943552                       # Total bytes read (Byte)
system.mem_ctrl.dram.bytesWritten            10238272                       # Total bytes written (Byte)
system.mem_ctrl.dram.avgRdBW                 6.590277                       # Average DRAM read bandwidth in MiBytes/s ((Byte/Second))
system.mem_ctrl.dram.avgWrBW                 4.839015                       # Average DRAM write bandwidth in MiBytes/s ((Byte/Second))
system.mem_ctrl.dram.peakBW                  12800.00                       # Theoretical peak bandwidth in MiByte/s ((Byte/Second))
system.mem_ctrl.dram.busUtil                     0.09                       # Data bus utilization in percentage (Ratio)
system.mem_ctrl.dram.busUtilRead                 0.05                       # Data bus utilization in percentage for reads (Ratio)
system.mem_ctrl.dram.busUtilWrite                0.04                       # Data bus utilization in percentage for writes (Ratio)
system.mem_ctrl.dram.pageHitRate                60.15                       # Row buffer hit rate, read and write combined (Ratio)
system.mem_ctrl.dram.power_state.pwrStateResidencyTicks::UNDEFINED 2115776258000                       # Cumulative time (in ticks) in various power states (Tick)
system.mem_ctrl.dram.rank0.actEnergy        515900700                       # Energy for activate commands per rank (pJ) (Joule)
system.mem_ctrl.dram.rank0.preEnergy        274200135                       # Energy for precharge commands per rank (pJ) (Joule)
system.mem_ctrl.dram.rank0.readEnergy       687217860                       # Energy for read commands per rank (pJ) (Joule)
system.mem_ctrl.dram.rank0.writeEnergy      354871260                       # Energy for write commands per rank (pJ) (Joule)
system.mem_ctrl.dram.rank0.refreshEnergy 167017356480.000031                       # Energy for refresh commands per rank (pJ) (Joule)
system.mem_ctrl.dram.rank0.actBackEnergy 165932228610                       # Energy for active background per rank (pJ) (Joule)
system.mem_ctrl.dram.rank0.preBackEnergy 672725680320                       # Energy for precharge background per rank (pJ) (Joule)
system.mem_ctrl.dram.rank0.actPowerDownEnergy            0                       # Energy for active power-down per rank (pJ) (Joule)
system.mem_ctrl.dram.rank0.prePowerDownEnergy            0                       # Energy for precharge power-down per rank (pJ) (Joule)
system.mem_ctrl.dram.rank0.selfRefreshEnergy            0                       # Energy for self refresh per rank (pJ) (Joule)
system.mem_ctrl.dram.rank0.totalEnergy   1007507455365                       # Total energy per rank (pJ) (Joule)
system.mem_ctrl.dram.rank0.averagePower    476.188090                       # Core power per rank (mW) (Watt)
system.mem_ctrl.dram.rank0.totalIdleTime            0                       # Total Idle time Per DRAM Rank (Tick)
system.mem_ctrl.dram.rank0.pwrStateTime::IDLE 1747243029250                       # Time in different power states (Tick)
system.mem_ctrl.dram.rank0.pwrStateTime::REF  70650320000                       # Time in different power states (Tick)
system.mem_ctrl.dram.rank0.pwrStateTime::SREF            0                       # Time in different power states (Tick)
system.mem_ctrl.dram.rank0.pwrStateTime::PRE_PDN            0                       # Time in different power states (Tick)
system.mem_ctrl.dram.rank0.pwrStateTime::ACT 297882908750                       # Time in different power states (Tick)
system.mem_ctrl.dram.rank0.pwrStateTime::ACT_PDN            0                       # Time in different power states (Tick)
system.mem_ctrl.dram.rank1.actEnergy        559261920                       # Energy for activate commands per rank (pJ) (Joule)
system.mem_ctrl.dram.rank1.preEnergy        297243375                       # Energy for precharge commands per rank (pJ) (Joule)
system.mem_ctrl.dram.rank1.readEnergy       868359660                       # Energy for read commands per rank (pJ) (Joule)
system.mem_ctrl.dram.rank1.writeEnergy      480187800                       # Energy for write commands per rank (pJ) (Joule)
system.mem_ctrl.dram.rank1.refreshEnergy 167017356480.000031                       # Energy for refresh commands per rank (pJ) (Joule)
system.mem_ctrl.dram.rank1.actBackEnergy 171685131450                       # Energy for active background per rank (pJ) (Joule)
system.mem_ctrl.dram.rank1.preBackEnergy 667881130560                       # Energy for precharge background per rank (pJ) (Joule)
system.mem_ctrl.dram.rank1.actPowerDownEnergy            0                       # Energy for active power-down per rank (pJ) (Joule)
system.mem_ctrl.dram.rank1.prePowerDownEnergy            0                       # Energy for precharge power-down per rank (pJ) (Joule)
system.mem_ctrl.dram.rank1.selfRefreshEnergy            0                       # Energy for self refresh per rank (pJ) (Joule)
system.mem_ctrl.dram.rank1.totalEnergy   1008788671245                       # Total energy per rank (pJ) (Joule)
system.mem_ctrl.dram.rank1.averagePower    476.793644                       # Core power per rank (mW) (Watt)
system.mem_ctrl.dram.rank1.totalIdleTime            0                       # Total Idle time Per DRAM Rank (Tick)
system.mem_ctrl.dram.rank1.pwrStateTime::IDLE 1734629617750                       # Time in different power states (Tick)
system.mem_ctrl.dram.rank1.pwrStateTime::REF  70650320000                       # Time in different power states (Tick)
system.mem_ctrl.dram.rank1.pwrStateTime::SREF            0                       # Time in different power states (Tick)
system.mem_ctrl.dram.rank1.pwrStateTime::PRE_PDN            0                       # Time in different power states (Tick)
system.mem_ctrl.dram.rank1.pwrStateTime::ACT 310496320250                       # Time in different power states (Tick)
system.mem_ctrl.dram.rank1.pwrStateTime::ACT_PDN            0                       # Time in different power states (Tick)
system.mem_ctrl.power_state.pwrStateResidencyTicks::UNDEFINED 2115776258000                       # Cumulative time (in ticks) in various power states (Tick)
system.membus.transDist::ReadResp               70645                       # Transaction distribution (Count)
system.membus.transDist::WritebackDirty        160212                       # Transaction distribution (Count)
system.membus.transDist::CleanEvict             70633                       # Transaction distribution (Count)
system.membus.transDist::ReadExReq             158722                       # Transaction distribution (Count)
system.membus.transDist::ReadExResp            158722                       # Transaction distribution (Count)
system.membus.transDist::ReadSharedReq          70645                       # Transaction distribution (Count)
system.membus.pktCount_system.l4cache.mem_side_port::system.mem_ctrl.port       689579                       # Packet count per connected requestor and responder (Count)
system.membus.pktCount::total                  689579                       # Packet count per connected requestor and responder (Count)
system.membus.pktSize_system.l4cache.mem_side_port::system.mem_ctrl.port     24933056                       # Cumulative packet size per connected requestor and responder (Byte)
system.membus.pktSize::total                 24933056                       # Cumulative packet size per connected requestor and responder (Byte)
system.membus.snoops                                0                       # Total snoops (Count)
system.membus.snoopTraffic                          0                       # Total snoop traffic (Byte)
system.membus.snoopFanout::samples             229367                       # Request fanout histogram (Count)
system.membus.snoopFanout::mean                     0                       # Request fanout histogram (Count)
system.membus.snoopFanout::stdev                    0                       # Request fanout histogram (Count)
system.membus.snoopFanout::underflows               0      0.00%      0.00% # Request fanout histogram (Count)
system.membus.snoopFanout::0                   229367    100.00%    100.00% # Request fanout histogram (Count)
system.membus.snoopFanout::1                        0      0.00%    100.00% # Request fanout histogram (Count)
system.membus.snoopFanout::overflows                0      0.00%    100.00% # Request fanout histogram (Count)
system.membus.snoopFanout::min_value                0                       # Request fanout histogram (Count)
system.membus.snoopFanout::max_value                0                       # Request fanout histogram (Count)
system.membus.snoopFanout::total               229367                       # Request fanout histogram (Count)
system.membus.power_state.pwrStateResidencyTicks::UNDEFINED 2115776258000                       # Cumulative time (in ticks) in various power states (Tick)
system.membus.reqLayer0.occupancy          1101060000                       # Layer occupancy (ticks) (Tick)
system.membus.reqLayer0.utilization               0.0                       # Layer utilization (Ratio)
system.membus.respLayer0.occupancy         1233729500                       # Layer occupancy (ticks) (Tick)
system.membus.respLayer0.utilization              0.0                       # Layer utilization (Ratio)
system.membus.snoop_filter.totRequests         460212                       # Total number of requests made to the snoop filter. (Count)
system.membus.snoop_filter.hitSingleRequests       230845                       # Number of requests hitting in the snoop filter with a single holder of the requested data. (Count)
system.membus.snoop_filter.hitMultiRequests            0                       # Number of requests hitting in the snoop filter with multiple (>1) holders of the requested data. (Count)
system.membus.snoop_filter.totSnoops                0                       # Total number of snoops made to the snoop filter. (Count)
system.membus.snoop_filter.hitSingleSnoops            0                       # Number of snoops hitting in the snoop filter with a single holder of the requested data. (Count)
system.membus.snoop_filter.hitMultiSnoops            0                       # Number of snoops hitting in the snoop filter with multiple (>1) holders of the requested data. (Count)
system.workload.inst.arm                            0                       # number of arm instructions executed (Count)
system.workload.inst.quiesce                        0                       # number of quiesce instructions executed (Count)

---------- End Simulation Statistics   ----------
