
---------- Begin Simulation Statistics ----------
simSeconds                                   1.950928                       # Number of seconds simulated (Second)
simTicks                                 1950928398000                       # Number of ticks simulated (Tick)
finalTick                                1950928398000                       # Number of ticks from beginning of simulation (restored from checkpoints and never reset) (Tick)
simFreq                                  1000000000000                       # The number of ticks per simulated second ((Tick/Second))
hostSeconds                                    208.47                       # Real time elapsed on the host (Second)
hostTickRate                               9358388147                       # The number of ticks simulated per host second (ticks/s) ((Tick/Second))
hostMemory                                     682712                       # Number of bytes of host memory used (Byte)
simInsts                                    338594450                       # Number of instructions simulated (Count)
simOps                                      338594450                       # Number of ops (including micro ops) simulated (Count)
hostInstRate                                  1624200                       # Simulator instruction rate (inst/s) ((Count/Second))
hostOpRate                                    1624200                       # Simulator op (including micro ops) rate (op/s) ((Count/Second))
system.clk_domain.clock                          1000                       # Clock period in ticks (Tick)
system.clk_domain.voltage_domain.voltage            1                       # Voltage in Volts (Volt)
system.cpu.numCycles                       1950928398                       # Number of cpu cycles simulated (Cycle)
system.cpu.numWorkItemsStarted                      0                       # Number of work items this cpu started (Count)
system.cpu.numWorkItemsCompleted                    0                       # Number of work items this cpu completed (Count)
system.cpu.dcache.demandHits::cpu.data      122067902                       # number of demand (read+write) hits (Count)
system.cpu.dcache.demandHits::total         122067902                       # number of demand (read+write) hits (Count)
system.cpu.dcache.overallHits::cpu.data     122067902                       # number of overall hits (Count)
system.cpu.dcache.overallHits::total        122067902                       # number of overall hits (Count)
system.cpu.dcache.demandMisses::cpu.data       975687                       # number of demand (read+write) misses (Count)
system.cpu.dcache.demandMisses::total          975687                       # number of demand (read+write) misses (Count)
system.cpu.dcache.overallMisses::cpu.data       975687                       # number of overall misses (Count)
system.cpu.dcache.overallMisses::total         975687                       # number of overall misses (Count)
system.cpu.dcache.demandMissLatency::cpu.data 107994669000                       # number of demand (read+write) miss ticks (Tick)
system.cpu.dcache.demandMissLatency::total 107994669000                       # number of demand (read+write) miss ticks (Tick)
system.cpu.dcache.overallMissLatency::cpu.data 107994669000                       # number of overall miss ticks (Tick)
system.cpu.dcache.overallMissLatency::total 107994669000                       # number of overall miss ticks (Tick)
system.cpu.dcache.demandAccesses::cpu.data    123043589                       # number of demand (read+write) accesses (Count)
system.cpu.dcache.demandAccesses::total     123043589                       # number of demand (read+write) accesses (Count)
system.cpu.dcache.overallAccesses::cpu.data    123043589                       # number of overall (read+write) accesses (Count)
system.cpu.dcache.overallAccesses::total    123043589                       # number of overall (read+write) accesses (Count)
system.cpu.dcache.demandMissRate::cpu.data     0.007930                       # miss rate for demand accesses (Ratio)
system.cpu.dcache.demandMissRate::total      0.007930                       # miss rate for demand accesses (Ratio)
system.cpu.dcache.overallMissRate::cpu.data     0.007930                       # miss rate for overall accesses (Ratio)
system.cpu.dcache.overallMissRate::total     0.007930                       # miss rate for overall accesses (Ratio)
system.cpu.dcache.demandAvgMissLatency::cpu.data 110685.772179                       # average overall miss latency ((Cycle/Count))
system.cpu.dcache.demandAvgMissLatency::total 110685.772179                       # average overall miss latency ((Cycle/Count))
system.cpu.dcache.overallAvgMissLatency::cpu.data 110685.772179                       # average overall miss latency ((Cycle/Count))
system.cpu.dcache.overallAvgMissLatency::total 110685.772179                       # average overall miss latency ((Cycle/Count))
system.cpu.dcache.blockedCycles::no_mshrs            0                       # number of cycles access was blocked (Cycle)
system.cpu.dcache.blockedCycles::no_targets            0                       # number of cycles access was blocked (Cycle)
system.cpu.dcache.blockedCauses::no_mshrs            0                       # number of times access was blocked (Count)
system.cpu.dcache.blockedCauses::no_targets            0                       # number of times access was blocked (Count)
system.cpu.dcache.avgBlocked::no_mshrs            nan                       # average number of cycles each access was blocked ((Cycle/Count))
system.cpu.dcache.avgBlocked::no_targets          nan                       # average number of cycles each access was blocked ((Cycle/Count))
system.cpu.dcache.writebacks::writebacks       495280                       # number of writebacks (Count)
system.cpu.dcache.writebacks::total            495280                       # number of writebacks (Count)
system.cpu.dcache.demandMshrMisses::cpu.data       975687                       # number of demand (read+write) MSHR misses (Count)
system.cpu.dcache.demandMshrMisses::total       975687                       # number of demand (read+write) MSHR misses (Count)
system.cpu.dcache.overallMshrMisses::cpu.data       975687                       # number of overall MSHR misses (Count)
system.cpu.dcache.overallMshrMisses::total       975687                       # number of overall MSHR misses (Count)
system.cpu.dcache.demandMshrMissLatency::cpu.data 104091921000                       # number of demand (read+write) MSHR miss ticks (Tick)
system.cpu.dcache.demandMshrMissLatency::total 104091921000                       # number of demand (read+write) MSHR miss ticks (Tick)
system.cpu.dcache.overallMshrMissLatency::cpu.data 104091921000                       # number of overall MSHR miss ticks (Tick)
system.cpu.dcache.overallMshrMissLatency::total 104091921000                       # number of overall MSHR miss ticks (Tick)
system.cpu.dcache.demandMshrMissRate::cpu.data     0.007930                       # mshr miss ratio for demand accesses (Ratio)
system.cpu.dcache.demandMshrMissRate::total     0.007930                       # mshr miss ratio for demand accesses (Ratio)
system.cpu.dcache.overallMshrMissRate::cpu.data     0.007930                       # mshr miss ratio for overall accesses (Ratio)
system.cpu.dcache.overallMshrMissRate::total     0.007930                       # mshr miss ratio for overall accesses (Ratio)
system.cpu.dcache.demandAvgMshrMissLatency::cpu.data 106685.772179                       # average overall mshr miss latency ((Cycle/Count))
system.cpu.dcache.demandAvgMshrMissLatency::total 106685.772179                       # average overall mshr miss latency ((Cycle/Count))
system.cpu.dcache.overallAvgMshrMissLatency::cpu.data 106685.772179                       # average overall mshr miss latency ((Cycle/Count))
system.cpu.dcache.overallAvgMshrMissLatency::total 106685.772179                       # average overall mshr miss latency ((Cycle/Count))
system.cpu.dcache.replacements                 951231                       # number of replacements (Count)
system.cpu.dcache.ReadReq.hits::cpu.data     92998120                       # number of ReadReq hits (Count)
system.cpu.dcache.ReadReq.hits::total        92998120                       # number of ReadReq hits (Count)
system.cpu.dcache.ReadReq.misses::cpu.data       529180                       # number of ReadReq misses (Count)
system.cpu.dcache.ReadReq.misses::total        529180                       # number of ReadReq misses (Count)
system.cpu.dcache.ReadReq.missLatency::cpu.data  57686897000                       # number of ReadReq miss ticks (Tick)
system.cpu.dcache.ReadReq.missLatency::total  57686897000                       # number of ReadReq miss ticks (Tick)
system.cpu.dcache.ReadReq.accesses::cpu.data     93527300                       # number of ReadReq accesses(hits+misses) (Count)
system.cpu.dcache.ReadReq.accesses::total     93527300                       # number of ReadReq accesses(hits+misses) (Count)
system.cpu.dcache.ReadReq.missRate::cpu.data     0.005658                       # miss rate for ReadReq accesses (Ratio)
system.cpu.dcache.ReadReq.missRate::total     0.005658                       # miss rate for ReadReq accesses (Ratio)
system.cpu.dcache.ReadReq.avgMissLatency::cpu.data 109011.861748                       # average ReadReq miss latency ((Tick/Count))
system.cpu.dcache.ReadReq.avgMissLatency::total 109011.861748                       # average ReadReq miss latency ((Tick/Count))
system.cpu.dcache.ReadReq.mshrMisses::cpu.data       529180                       # number of ReadReq MSHR misses (Count)
system.cpu.dcache.ReadReq.mshrMisses::total       529180                       # number of ReadReq MSHR misses (Count)
system.cpu.dcache.ReadReq.mshrMissLatency::cpu.data  55570177000                       # number of ReadReq MSHR miss ticks (Tick)
system.cpu.dcache.ReadReq.mshrMissLatency::total  55570177000                       # number of ReadReq MSHR miss ticks (Tick)
system.cpu.dcache.ReadReq.mshrMissRate::cpu.data     0.005658                       # mshr miss rate for ReadReq accesses (Ratio)
system.cpu.dcache.ReadReq.mshrMissRate::total     0.005658                       # mshr miss rate for ReadReq accesses (Ratio)
system.cpu.dcache.ReadReq.avgMshrMissLatency::cpu.data 105011.861748                       # average ReadReq mshr miss latency ((Tick/Count))
system.cpu.dcache.ReadReq.avgMshrMissLatency::total 105011.861748                       # average ReadReq mshr miss latency ((Tick/Count))
system.cpu.dcache.WriteReq.hits::cpu.data     29069782                       # number of WriteReq hits (Count)
system.cpu.dcache.WriteReq.hits::total       29069782                       # number of WriteReq hits (Count)
system.cpu.dcache.WriteReq.misses::cpu.data       446507                       # number of WriteReq misses (Count)
system.cpu.dcache.WriteReq.misses::total       446507                       # number of WriteReq misses (Count)
system.cpu.dcache.WriteReq.missLatency::cpu.data  50307772000                       # number of WriteReq miss ticks (Tick)
system.cpu.dcache.WriteReq.missLatency::total  50307772000                       # number of WriteReq miss ticks (Tick)
system.cpu.dcache.WriteReq.accesses::cpu.data     29516289                       # number of WriteReq accesses(hits+misses) (Count)
system.cpu.dcache.WriteReq.accesses::total     29516289                       # number of WriteReq accesses(hits+misses) (Count)
system.cpu.dcache.WriteReq.missRate::cpu.data     0.015127                       # miss rate for WriteReq accesses (Ratio)
system.cpu.dcache.WriteReq.missRate::total     0.015127                       # miss rate for WriteReq accesses (Ratio)
system.cpu.dcache.WriteReq.avgMissLatency::cpu.data 112669.615482                       # average WriteReq miss latency ((Tick/Count))
system.cpu.dcache.WriteReq.avgMissLatency::total 112669.615482                       # average WriteReq miss latency ((Tick/Count))
system.cpu.dcache.WriteReq.mshrMisses::cpu.data       446507                       # number of WriteReq MSHR misses (Count)
system.cpu.dcache.WriteReq.mshrMisses::total       446507                       # number of WriteReq MSHR misses (Count)
system.cpu.dcache.WriteReq.mshrMissLatency::cpu.data  48521744000                       # number of WriteReq MSHR miss ticks (Tick)
system.cpu.dcache.WriteReq.mshrMissLatency::total  48521744000                       # number of WriteReq MSHR miss ticks (Tick)
system.cpu.dcache.WriteReq.mshrMissRate::cpu.data     0.015127                       # mshr miss rate for WriteReq accesses (Ratio)
system.cpu.dcache.WriteReq.mshrMissRate::total     0.015127                       # mshr miss rate for WriteReq accesses (Ratio)
system.cpu.dcache.WriteReq.avgMshrMissLatency::cpu.data 108669.615482                       # average WriteReq mshr miss latency ((Tick/Count))
system.cpu.dcache.WriteReq.avgMshrMissLatency::total 108669.615482                       # average WriteReq mshr miss latency ((Tick/Count))
system.cpu.dcache.power_state.pwrStateResidencyTicks::UNDEFINED 1950928398000                       # Cumulative time (in ticks) in various power states (Tick)
system.cpu.dcache.tags.tagsInUse            31.999875                       # Average ticks per tags in use ((Tick/Count))
system.cpu.dcache.tags.totalRefs            123043589                       # Total number of references to valid blocks. (Count)
system.cpu.dcache.tags.sampledRefs             951263                       # Sample count of references to valid blocks. (Count)
system.cpu.dcache.tags.avgRefs             129.347603                       # Average number of references to valid blocks. ((Count/Count))
system.cpu.dcache.tags.warmupTick              358000                       # The tick when the warmup percentage was hit. (Tick)
system.cpu.dcache.tags.occupancies::cpu.data    31.999875                       # Average occupied blocks per tick, per requestor ((Count/Tick))
system.cpu.dcache.tags.avgOccs::cpu.data     0.999996                       # Average percentage of cache occupancy ((Ratio/Tick))
system.cpu.dcache.tags.avgOccs::total        0.999996                       # Average percentage of cache occupancy ((Ratio/Tick))
system.cpu.dcache.tags.occupanciesTaskId::1024           32                       # Occupied blocks per task id (Count)
system.cpu.dcache.tags.ageTaskId_1024::0           16                       # Occupied blocks per task id, per block age (Count)
system.cpu.dcache.tags.ageTaskId_1024::1           16                       # Occupied blocks per task id, per block age (Count)
system.cpu.dcache.tags.ratioOccsTaskId::1024            1                       # Ratio of occupied blocks and all blocks, per task id (Ratio)
system.cpu.dcache.tags.tagAccesses          493125619                       # Number of tag accesses (Count)
system.cpu.dcache.tags.dataAccesses         493125619                       # Number of data accesses (Count)
system.cpu.dcache.tags.power_state.pwrStateResidencyTicks::UNDEFINED 1950928398000                       # Cumulative time (in ticks) in various power states (Tick)
system.cpu.exec_context.thread_0.numInsts    338594450                       # Number of instructions committed (Count)
system.cpu.exec_context.thread_0.numOps     338594450                       # Number of ops (including micro ops) committed (Count)
system.cpu.exec_context.thread_0.numIntAluAccesses    337591617                       # Number of integer alu accesses (Count)
system.cpu.exec_context.thread_0.numFpAluAccesses           18                       # Number of float alu accesses (Count)
system.cpu.exec_context.thread_0.numVecAluAccesses            0                       # Number of vector alu accesses (Count)
system.cpu.exec_context.thread_0.numCallsReturns      1500244                       # Number of times a function call or return occured (Count)
system.cpu.exec_context.thread_0.numCondCtrlInsts     16494644                       # Number of instructions that are conditional controls (Count)
system.cpu.exec_context.thread_0.numIntInsts    337591617                       # Number of integer instructions (Count)
system.cpu.exec_context.thread_0.numFpInsts           18                       # Number of float instructions (Count)
system.cpu.exec_context.thread_0.numVecInsts            0                       # Number of vector instructions (Count)
system.cpu.exec_context.thread_0.numIntRegReads    493586797                       # Number of times the integer registers were read (Count)
system.cpu.exec_context.thread_0.numIntRegWrites    323578361                       # Number of times the integer registers were written (Count)
system.cpu.exec_context.thread_0.numFpRegReads           18                       # Number of times the floating registers were read (Count)
system.cpu.exec_context.thread_0.numFpRegWrites            0                       # Number of times the floating registers were written (Count)
system.cpu.exec_context.thread_0.numVecRegReads            0                       # Number of times the vector registers were read (Count)
system.cpu.exec_context.thread_0.numVecRegWrites            0                       # Number of times the vector registers were written (Count)
system.cpu.exec_context.thread_0.numVecPredRegReads            0                       # Number of times the predicate registers were read (Count)
system.cpu.exec_context.thread_0.numVecPredRegWrites            0                       # Number of times the predicate registers were written (Count)
system.cpu.exec_context.thread_0.numMiscRegReads            0                       # Number of times the Misc registers were read (Count)
system.cpu.exec_context.thread_0.numMiscRegWrites            0                       # Number of times the Misc registers were written (Count)
system.cpu.exec_context.thread_0.numMemRefs    123044099                       # Number of memory refs (Count)
system.cpu.exec_context.thread_0.numLoadInsts     93527300                       # Number of load instructions (Count)
system.cpu.exec_context.thread_0.numStoreInsts     29516799                       # Number of store instructions (Count)
system.cpu.exec_context.thread_0.numIdleCycles     0.001000                       # Number of idle cycles (Cycle)
system.cpu.exec_context.thread_0.numBusyCycles 1950928397.999000                       # Number of busy cycles (Cycle)
system.cpu.exec_context.thread_0.notIdleFraction     1.000000                       # Percentage of non-idle cycles (Ratio)
system.cpu.exec_context.thread_0.idleFraction     0.000000                       # Percentage of idle cycles (Ratio)
system.cpu.exec_context.thread_0.numBranches     17998143                       # Number of branches fetched (Count)
system.cpu.exec_context.thread_0.statExecutedInstType::No_OpClass            0      0.00%      0.00% # Class of executed instruction. (Count)
system.cpu.exec_context.thread_0.statExecutedInstType::IntAlu    215550870     63.66%     63.66% # Class of executed instruction. (Count)
system.cpu.exec_context.thread_0.statExecutedInstType::IntMult            0      0.00%     63.66% # Class of executed instruction. (Count)
system.cpu.exec_context.thread_0.statExecutedInstType::IntDiv            0      0.00%     63.66% # Class of executed instruction. (Count)
system.cpu.exec_context.thread_0.statExecutedInstType::FloatAdd            0      0.00%     63.66% # Class of executed instruction. (Count)
system.cpu.exec_context.thread_0.statExecutedInstType::FloatCmp            0      0.00%     63.66% # Class of executed instruction. (Count)
system.cpu.exec_context.thread_0.statExecutedInstType::FloatCvt            0      0.00%     63.66% # Class of executed instruction. (Count)
system.cpu.exec_context.thread_0.statExecutedInstType::FloatMult            0      0.00%     63.66% # Class of executed instruction. (Count)
system.cpu.exec_context.thread_0.statExecutedInstType::FloatMultAcc            0      0.00%     63.66% # Class of executed instruction. (Count)
system.cpu.exec_context.thread_0.statExecutedInstType::FloatDiv            0      0.00%     63.66% # Class of executed instruction. (Count)
system.cpu.exec_context.thread_0.statExecutedInstType::FloatMisc            0      0.00%     63.66% # Class of executed instruction. (Count)
system.cpu.exec_context.thread_0.statExecutedInstType::FloatSqrt            0      0.00%     63.66% # Class of executed instruction. (Count)
system.cpu.exec_context.thread_0.statExecutedInstType::SimdAdd            0      0.00%     63.66% # Class of executed instruction. (Count)
system.cpu.exec_context.thread_0.statExecutedInstType::SimdAddAcc            0      0.00%     63.66% # Class of executed instruction. (Count)
system.cpu.exec_context.thread_0.statExecutedInstType::SimdAlu            0      0.00%     63.66% # Class of executed instruction. (Count)
system.cpu.exec_context.thread_0.statExecutedInstType::SimdCmp            0      0.00%     63.66% # Class of executed instruction. (Count)
system.cpu.exec_context.thread_0.statExecutedInstType::SimdCvt            0      0.00%     63.66% # Class of executed instruction. (Count)
system.cpu.exec_context.thread_0.statExecutedInstType::SimdMisc            0      0.00%     63.66% # Class of executed instruction. (Count)
system.cpu.exec_context.thread_0.statExecutedInstType::SimdMult            0      0.00%     63.66% # Class of executed instruction. (Count)
system.cpu.exec_context.thread_0.statExecutedInstType::SimdMultAcc            0      0.00%     63.66% # Class of executed instruction. (Count)
system.cpu.exec_context.thread_0.statExecutedInstType::SimdShift            0      0.00%     63.66% # Class of executed instruction. (Count)
system.cpu.exec_context.thread_0.statExecutedInstType::SimdShiftAcc            0      0.00%     63.66% # Class of executed instruction. (Count)
system.cpu.exec_context.thread_0.statExecutedInstType::SimdDiv            0      0.00%     63.66% # Class of executed instruction. (Count)
system.cpu.exec_context.thread_0.statExecutedInstType::SimdSqrt            0      0.00%     63.66% # Class of executed instruction. (Count)
system.cpu.exec_context.thread_0.statExecutedInstType::SimdFloatAdd            0      0.00%     63.66% # Class of executed instruction. (Count)
system.cpu.exec_context.thread_0.statExecutedInstType::SimdFloatAlu            0      0.00%     63.66% # Class of executed instruction. (Count)
system.cpu.exec_context.thread_0.statExecutedInstType::SimdFloatCmp            0      0.00%     63.66% # Class of executed instruction. (Count)
system.cpu.exec_context.thread_0.statExecutedInstType::SimdFloatCvt            0      0.00%     63.66% # Class of executed instruction. (Count)
system.cpu.exec_context.thread_0.statExecutedInstType::SimdFloatDiv            0      0.00%     63.66% # Class of executed instruction. (Count)
system.cpu.exec_context.thread_0.statExecutedInstType::SimdFloatMisc            0      0.00%     63.66% # Class of executed instruction. (Count)
system.cpu.exec_context.thread_0.statExecutedInstType::SimdFloatMult            0      0.00%     63.66% # Class of executed instruction. (Count)
system.cpu.exec_context.thread_0.statExecutedInstType::SimdFloatMultAcc            0      0.00%     63.66% # Class of executed instruction. (Count)
system.cpu.exec_context.thread_0.statExecutedInstType::SimdFloatSqrt            0      0.00%     63.66% # Class of executed instruction. (Count)
system.cpu.exec_context.thread_0.statExecutedInstType::SimdReduceAdd            0      0.00%     63.66% # Class of executed instruction. (Count)
system.cpu.exec_context.thread_0.statExecutedInstType::SimdReduceAlu            0      0.00%     63.66% # Class of executed instruction. (Count)
system.cpu.exec_context.thread_0.statExecutedInstType::SimdReduceCmp            0      0.00%     63.66% # Class of executed instruction. (Count)
system.cpu.exec_context.thread_0.statExecutedInstType::SimdFloatReduceAdd            0      0.00%     63.66% # Class of executed instruction. (Count)
system.cpu.exec_context.thread_0.statExecutedInstType::SimdFloatReduceCmp            0      0.00%     63.66% # Class of executed instruction. (Count)
system.cpu.exec_context.thread_0.statExecutedInstType::SimdAes            0      0.00%     63.66% # Class of executed instruction. (Count)
system.cpu.exec_context.thread_0.statExecutedInstType::SimdAesMix            0      0.00%     63.66% # Class of executed instruction. (Count)
system.cpu.exec_context.thread_0.statExecutedInstType::SimdSha1Hash            0      0.00%     63.66% # Class of executed instruction. (Count)
system.cpu.exec_context.thread_0.statExecutedInstType::SimdSha1Hash2            0      0.00%     63.66% # Class of executed instruction. (Count)
system.cpu.exec_context.thread_0.statExecutedInstType::SimdSha256Hash            0      0.00%     63.66% # Class of executed instruction. (Count)
system.cpu.exec_context.thread_0.statExecutedInstType::SimdSha256Hash2            0      0.00%     63.66% # Class of executed instruction. (Count)
system.cpu.exec_context.thread_0.statExecutedInstType::SimdShaSigma2            0      0.00%     63.66% # Class of executed instruction. (Count)
system.cpu.exec_context.thread_0.statExecutedInstType::SimdShaSigma3            0      0.00%     63.66% # Class of executed instruction. (Count)
system.cpu.exec_context.thread_0.statExecutedInstType::SimdPredAlu            0      0.00%     63.66% # Class of executed instruction. (Count)
system.cpu.exec_context.thread_0.statExecutedInstType::MemRead     93527300     27.62%     91.28% # Class of executed instruction. (Count)
system.cpu.exec_context.thread_0.statExecutedInstType::MemWrite     29516781      8.72%    100.00% # Class of executed instruction. (Count)
system.cpu.exec_context.thread_0.statExecutedInstType::FloatMemRead            0      0.00%    100.00% # Class of executed instruction. (Count)
system.cpu.exec_context.thread_0.statExecutedInstType::FloatMemWrite           18      0.00%    100.00% # Class of executed instruction. (Count)
system.cpu.exec_context.thread_0.statExecutedInstType::IprAccess            0      0.00%    100.00% # Class of executed instruction. (Count)
system.cpu.exec_context.thread_0.statExecutedInstType::InstPrefetch            0      0.00%    100.00% # Class of executed instruction. (Count)
system.cpu.exec_context.thread_0.statExecutedInstType::total    338594969                       # Class of executed instruction. (Count)
system.cpu.icache.demandHits::cpu.inst      338593192                       # number of demand (read+write) hits (Count)
system.cpu.icache.demandHits::total         338593192                       # number of demand (read+write) hits (Count)
system.cpu.icache.overallHits::cpu.inst     338593192                       # number of overall hits (Count)
system.cpu.icache.overallHits::total        338593192                       # number of overall hits (Count)
system.cpu.icache.demandMisses::cpu.inst         1777                       # number of demand (read+write) misses (Count)
system.cpu.icache.demandMisses::total            1777                       # number of demand (read+write) misses (Count)
system.cpu.icache.overallMisses::cpu.inst         1777                       # number of overall misses (Count)
system.cpu.icache.overallMisses::total           1777                       # number of overall misses (Count)
system.cpu.icache.demandMissLatency::cpu.inst    289353000                       # number of demand (read+write) miss ticks (Tick)
system.cpu.icache.demandMissLatency::total    289353000                       # number of demand (read+write) miss ticks (Tick)
system.cpu.icache.overallMissLatency::cpu.inst    289353000                       # number of overall miss ticks (Tick)
system.cpu.icache.overallMissLatency::total    289353000                       # number of overall miss ticks (Tick)
system.cpu.icache.demandAccesses::cpu.inst    338594969                       # number of demand (read+write) accesses (Count)
system.cpu.icache.demandAccesses::total     338594969                       # number of demand (read+write) accesses (Count)
system.cpu.icache.overallAccesses::cpu.inst    338594969                       # number of overall (read+write) accesses (Count)
system.cpu.icache.overallAccesses::total    338594969                       # number of overall (read+write) accesses (Count)
system.cpu.icache.demandMissRate::cpu.inst     0.000005                       # miss rate for demand accesses (Ratio)
system.cpu.icache.demandMissRate::total      0.000005                       # miss rate for demand accesses (Ratio)
system.cpu.icache.overallMissRate::cpu.inst     0.000005                       # miss rate for overall accesses (Ratio)
system.cpu.icache.overallMissRate::total     0.000005                       # miss rate for overall accesses (Ratio)
system.cpu.icache.demandAvgMissLatency::cpu.inst 162832.301632                       # average overall miss latency ((Cycle/Count))
system.cpu.icache.demandAvgMissLatency::total 162832.301632                       # average overall miss latency ((Cycle/Count))
system.cpu.icache.overallAvgMissLatency::cpu.inst 162832.301632                       # average overall miss latency ((Cycle/Count))
system.cpu.icache.overallAvgMissLatency::total 162832.301632                       # average overall miss latency ((Cycle/Count))
system.cpu.icache.blockedCycles::no_mshrs            0                       # number of cycles access was blocked (Cycle)
system.cpu.icache.blockedCycles::no_targets            0                       # number of cycles access was blocked (Cycle)
system.cpu.icache.blockedCauses::no_mshrs            0                       # number of times access was blocked (Count)
system.cpu.icache.blockedCauses::no_targets            0                       # number of times access was blocked (Count)
system.cpu.icache.avgBlocked::no_mshrs            nan                       # average number of cycles each access was blocked ((Cycle/Count))
system.cpu.icache.avgBlocked::no_targets          nan                       # average number of cycles each access was blocked ((Cycle/Count))
system.cpu.icache.demandMshrMisses::cpu.inst         1777                       # number of demand (read+write) MSHR misses (Count)
system.cpu.icache.demandMshrMisses::total         1777                       # number of demand (read+write) MSHR misses (Count)
system.cpu.icache.overallMshrMisses::cpu.inst         1777                       # number of overall MSHR misses (Count)
system.cpu.icache.overallMshrMisses::total         1777                       # number of overall MSHR misses (Count)
system.cpu.icache.demandMshrMissLatency::cpu.inst    282245000                       # number of demand (read+write) MSHR miss ticks (Tick)
system.cpu.icache.demandMshrMissLatency::total    282245000                       # number of demand (read+write) MSHR miss ticks (Tick)
system.cpu.icache.overallMshrMissLatency::cpu.inst    282245000                       # number of overall MSHR miss ticks (Tick)
system.cpu.icache.overallMshrMissLatency::total    282245000                       # number of overall MSHR miss ticks (Tick)
system.cpu.icache.demandMshrMissRate::cpu.inst     0.000005                       # mshr miss ratio for demand accesses (Ratio)
system.cpu.icache.demandMshrMissRate::total     0.000005                       # mshr miss ratio for demand accesses (Ratio)
system.cpu.icache.overallMshrMissRate::cpu.inst     0.000005                       # mshr miss ratio for overall accesses (Ratio)
system.cpu.icache.overallMshrMissRate::total     0.000005                       # mshr miss ratio for overall accesses (Ratio)
system.cpu.icache.demandAvgMshrMissLatency::cpu.inst 158832.301632                       # average overall mshr miss latency ((Cycle/Count))
system.cpu.icache.demandAvgMshrMissLatency::total 158832.301632                       # average overall mshr miss latency ((Cycle/Count))
system.cpu.icache.overallAvgMshrMissLatency::cpu.inst 158832.301632                       # average overall mshr miss latency ((Cycle/Count))
system.cpu.icache.overallAvgMshrMissLatency::total 158832.301632                       # average overall mshr miss latency ((Cycle/Count))
system.cpu.icache.replacements                   1761                       # number of replacements (Count)
system.cpu.icache.ReadReq.hits::cpu.inst    338593192                       # number of ReadReq hits (Count)
system.cpu.icache.ReadReq.hits::total       338593192                       # number of ReadReq hits (Count)
system.cpu.icache.ReadReq.misses::cpu.inst         1777                       # number of ReadReq misses (Count)
system.cpu.icache.ReadReq.misses::total          1777                       # number of ReadReq misses (Count)
system.cpu.icache.ReadReq.missLatency::cpu.inst    289353000                       # number of ReadReq miss ticks (Tick)
system.cpu.icache.ReadReq.missLatency::total    289353000                       # number of ReadReq miss ticks (Tick)
system.cpu.icache.ReadReq.accesses::cpu.inst    338594969                       # number of ReadReq accesses(hits+misses) (Count)
system.cpu.icache.ReadReq.accesses::total    338594969                       # number of ReadReq accesses(hits+misses) (Count)
system.cpu.icache.ReadReq.missRate::cpu.inst     0.000005                       # miss rate for ReadReq accesses (Ratio)
system.cpu.icache.ReadReq.missRate::total     0.000005                       # miss rate for ReadReq accesses (Ratio)
system.cpu.icache.ReadReq.avgMissLatency::cpu.inst 162832.301632                       # average ReadReq miss latency ((Tick/Count))
system.cpu.icache.ReadReq.avgMissLatency::total 162832.301632                       # average ReadReq miss latency ((Tick/Count))
system.cpu.icache.ReadReq.mshrMisses::cpu.inst         1777                       # number of ReadReq MSHR misses (Count)
system.cpu.icache.ReadReq.mshrMisses::total         1777                       # number of ReadReq MSHR misses (Count)
system.cpu.icache.ReadReq.mshrMissLatency::cpu.inst    282245000                       # number of ReadReq MSHR miss ticks (Tick)
system.cpu.icache.ReadReq.mshrMissLatency::total    282245000                       # number of ReadReq MSHR miss ticks (Tick)
system.cpu.icache.ReadReq.mshrMissRate::cpu.inst     0.000005                       # mshr miss rate for ReadReq accesses (Ratio)
system.cpu.icache.ReadReq.mshrMissRate::total     0.000005                       # mshr miss rate for ReadReq accesses (Ratio)
system.cpu.icache.ReadReq.avgMshrMissLatency::cpu.inst 158832.301632                       # average ReadReq mshr miss latency ((Tick/Count))
system.cpu.icache.ReadReq.avgMshrMissLatency::total 158832.301632                       # average ReadReq mshr miss latency ((Tick/Count))
system.cpu.icache.power_state.pwrStateResidencyTicks::UNDEFINED 1950928398000                       # Cumulative time (in ticks) in various power states (Tick)
system.cpu.icache.tags.tagsInUse            15.999966                       # Average ticks per tags in use ((Tick/Count))
system.cpu.icache.tags.totalRefs            338594969                       # Total number of references to valid blocks. (Count)
system.cpu.icache.tags.sampledRefs               1777                       # Sample count of references to valid blocks. (Count)
system.cpu.icache.tags.avgRefs           190543.032639                       # Average number of references to valid blocks. ((Count/Count))
system.cpu.icache.tags.warmupTick              171000                       # The tick when the warmup percentage was hit. (Tick)
system.cpu.icache.tags.occupancies::cpu.inst    15.999966                       # Average occupied blocks per tick, per requestor ((Count/Tick))
system.cpu.icache.tags.avgOccs::cpu.inst     0.999998                       # Average percentage of cache occupancy ((Ratio/Tick))
system.cpu.icache.tags.avgOccs::total        0.999998                       # Average percentage of cache occupancy ((Ratio/Tick))
system.cpu.icache.tags.occupanciesTaskId::1024           16                       # Occupied blocks per task id (Count)
system.cpu.icache.tags.ageTaskId_1024::0           16                       # Occupied blocks per task id, per block age (Count)
system.cpu.icache.tags.ratioOccsTaskId::1024            1                       # Ratio of occupied blocks and all blocks, per task id (Ratio)
system.cpu.icache.tags.tagAccesses         1354381653                       # Number of tag accesses (Count)
system.cpu.icache.tags.dataAccesses        1354381653                       # Number of data accesses (Count)
system.cpu.icache.tags.power_state.pwrStateResidencyTicks::UNDEFINED 1950928398000                       # Cumulative time (in ticks) in various power states (Tick)
system.cpu.power_state.pwrStateResidencyTicks::ON 1950928398000                       # Cumulative time (in ticks) in various power states (Tick)
system.cpu.thread_0.numInsts                        0                       # Number of Instructions committed (Count)
system.cpu.thread_0.numOps                          0                       # Number of Ops committed (Count)
system.cpu.thread_0.numMemRefs                      0                       # Number of Memory References (Count)
system.cpu.workload.numSyscalls                     9                       # Number of system calls (Count)
system.l2bus.transDist::ReadResp               530957                       # Transaction distribution (Count)
system.l2bus.transDist::WritebackDirty        1177193                       # Transaction distribution (Count)
system.l2bus.transDist::CleanEvict             643994                       # Transaction distribution (Count)
system.l2bus.transDist::UpgradeReq              24424                       # Transaction distribution (Count)
system.l2bus.transDist::UpgradeResp             24424                       # Transaction distribution (Count)
system.l2bus.transDist::ReadExReq              422083                       # Transaction distribution (Count)
system.l2bus.transDist::ReadExResp             422083                       # Transaction distribution (Count)
system.l2bus.transDist::ReadSharedReq          530957                       # Transaction distribution (Count)
system.l2bus.pktCount_system.cpu.icache.mem_side_port::system.l2cache.cpu_side_port         5315                       # Packet count per connected requestor and responder (Count)
system.l2bus.pktCount_system.cpu.dcache.mem_side_port::system.l2cache.cpu_side_port      2902605                       # Packet count per connected requestor and responder (Count)
system.l2bus.pktCount::total                  2907920                       # Packet count per connected requestor and responder (Count)
system.l2bus.pktSize_system.cpu.icache.mem_side_port::system.l2cache.cpu_side_port       113728                       # Cumulative packet size per connected requestor and responder (Byte)
system.l2bus.pktSize_system.cpu.dcache.mem_side_port::system.l2cache.cpu_side_port     92578752                       # Cumulative packet size per connected requestor and responder (Byte)
system.l2bus.pktSize::total                  92692480                       # Cumulative packet size per connected requestor and responder (Byte)
system.l2bus.snoops                            868195                       # Total snoops (Count)
system.l2bus.snoopTraffic                    43642432                       # Total snoop traffic (Byte)
system.l2bus.snoopFanout::samples             1845659                       # Request fanout histogram (Count)
system.l2bus.snoopFanout::mean               0.012163                       # Request fanout histogram (Count)
system.l2bus.snoopFanout::stdev              0.109611                       # Request fanout histogram (Count)
system.l2bus.snoopFanout::underflows                0      0.00%      0.00% # Request fanout histogram (Count)
system.l2bus.snoopFanout::0                   1823211     98.78%     98.78% # Request fanout histogram (Count)
system.l2bus.snoopFanout::1                     22448      1.22%    100.00% # Request fanout histogram (Count)
system.l2bus.snoopFanout::2                         0      0.00%    100.00% # Request fanout histogram (Count)
system.l2bus.snoopFanout::overflows                 0      0.00%    100.00% # Request fanout histogram (Count)
system.l2bus.snoopFanout::min_value                 0                       # Request fanout histogram (Count)
system.l2bus.snoopFanout::max_value                 1                       # Request fanout histogram (Count)
system.l2bus.snoopFanout::total               1845659                       # Request fanout histogram (Count)
system.l2bus.power_state.pwrStateResidencyTicks::UNDEFINED 1950928398000                       # Cumulative time (in ticks) in various power states (Tick)
system.l2bus.reqLayer0.occupancy           2921016000                       # Layer occupancy (ticks) (Tick)
system.l2bus.reqLayer0.utilization                0.0                       # Layer utilization (Ratio)
system.l2bus.respLayer0.occupancy             5331000                       # Layer occupancy (ticks) (Tick)
system.l2bus.respLayer0.utilization               0.0                       # Layer utilization (Ratio)
system.l2bus.respLayer1.occupancy          2878213000                       # Layer occupancy (ticks) (Tick)
system.l2bus.respLayer1.utilization               0.0                       # Layer utilization (Ratio)
system.l2bus.snoop_filter.totRequests         1930456                       # Total number of requests made to the snoop filter. (Count)
system.l2bus.snoop_filter.hitSingleRequests       977416                       # Number of requests hitting in the snoop filter with a single holder of the requested data. (Count)
system.l2bus.snoop_filter.hitMultiRequests            2                       # Number of requests hitting in the snoop filter with multiple (>1) holders of the requested data. (Count)
system.l2bus.snoop_filter.totSnoops             22446                       # Total number of snoops made to the snoop filter. (Count)
system.l2bus.snoop_filter.hitSingleSnoops        22446                       # Number of snoops hitting in the snoop filter with a single holder of the requested data. (Count)
system.l2bus.snoop_filter.hitMultiSnoops            0                       # Number of snoops hitting in the snoop filter with multiple (>1) holders of the requested data. (Count)
system.l2cache.demandHits::cpu.inst               140                       # number of demand (read+write) hits (Count)
system.l2cache.demandHits::cpu.data            104639                       # number of demand (read+write) hits (Count)
system.l2cache.demandHits::total               104779                       # number of demand (read+write) hits (Count)
system.l2cache.overallHits::cpu.inst              140                       # number of overall hits (Count)
system.l2cache.overallHits::cpu.data           104639                       # number of overall hits (Count)
system.l2cache.overallHits::total              104779                       # number of overall hits (Count)
system.l2cache.demandMisses::cpu.inst            1637                       # number of demand (read+write) misses (Count)
system.l2cache.demandMisses::cpu.data          846624                       # number of demand (read+write) misses (Count)
system.l2cache.demandMisses::total             848261                       # number of demand (read+write) misses (Count)
system.l2cache.overallMisses::cpu.inst           1637                       # number of overall misses (Count)
system.l2cache.overallMisses::cpu.data         846624                       # number of overall misses (Count)
system.l2cache.overallMisses::total            848261                       # number of overall misses (Count)
system.l2cache.demandMissLatency::cpu.inst    270980000                       # number of demand (read+write) miss ticks (Tick)
system.l2cache.demandMissLatency::cpu.data  97019407000                       # number of demand (read+write) miss ticks (Tick)
system.l2cache.demandMissLatency::total   97290387000                       # number of demand (read+write) miss ticks (Tick)
system.l2cache.overallMissLatency::cpu.inst    270980000                       # number of overall miss ticks (Tick)
system.l2cache.overallMissLatency::cpu.data  97019407000                       # number of overall miss ticks (Tick)
system.l2cache.overallMissLatency::total  97290387000                       # number of overall miss ticks (Tick)
system.l2cache.demandAccesses::cpu.inst          1777                       # number of demand (read+write) accesses (Count)
system.l2cache.demandAccesses::cpu.data        951263                       # number of demand (read+write) accesses (Count)
system.l2cache.demandAccesses::total           953040                       # number of demand (read+write) accesses (Count)
system.l2cache.overallAccesses::cpu.inst         1777                       # number of overall (read+write) accesses (Count)
system.l2cache.overallAccesses::cpu.data       951263                       # number of overall (read+write) accesses (Count)
system.l2cache.overallAccesses::total          953040                       # number of overall (read+write) accesses (Count)
system.l2cache.demandMissRate::cpu.inst      0.921216                       # miss rate for demand accesses (Ratio)
system.l2cache.demandMissRate::cpu.data      0.890000                       # miss rate for demand accesses (Ratio)
system.l2cache.demandMissRate::total         0.890058                       # miss rate for demand accesses (Ratio)
system.l2cache.overallMissRate::cpu.inst     0.921216                       # miss rate for overall accesses (Ratio)
system.l2cache.overallMissRate::cpu.data     0.890000                       # miss rate for overall accesses (Ratio)
system.l2cache.overallMissRate::total        0.890058                       # miss rate for overall accesses (Ratio)
system.l2cache.demandAvgMissLatency::cpu.inst 165534.514356                       # average overall miss latency ((Cycle/Count))
system.l2cache.demandAvgMissLatency::cpu.data 114595.625685                       # average overall miss latency ((Cycle/Count))
system.l2cache.demandAvgMissLatency::total 114693.929109                       # average overall miss latency ((Cycle/Count))
system.l2cache.overallAvgMissLatency::cpu.inst 165534.514356                       # average overall miss latency ((Cycle/Count))
system.l2cache.overallAvgMissLatency::cpu.data 114595.625685                       # average overall miss latency ((Cycle/Count))
system.l2cache.overallAvgMissLatency::total 114693.929109                       # average overall miss latency ((Cycle/Count))
system.l2cache.blockedCycles::no_mshrs              0                       # number of cycles access was blocked (Cycle)
system.l2cache.blockedCycles::no_targets            0                       # number of cycles access was blocked (Cycle)
system.l2cache.blockedCauses::no_mshrs              0                       # number of times access was blocked (Count)
system.l2cache.blockedCauses::no_targets            0                       # number of times access was blocked (Count)
system.l2cache.avgBlocked::no_mshrs               nan                       # average number of cycles each access was blocked ((Cycle/Count))
system.l2cache.avgBlocked::no_targets             nan                       # average number of cycles each access was blocked ((Cycle/Count))
system.l2cache.writebacks::writebacks          681912                       # number of writebacks (Count)
system.l2cache.writebacks::total               681912                       # number of writebacks (Count)
system.l2cache.demandMshrMisses::cpu.inst         1637                       # number of demand (read+write) MSHR misses (Count)
system.l2cache.demandMshrMisses::cpu.data       846624                       # number of demand (read+write) MSHR misses (Count)
system.l2cache.demandMshrMisses::total         848261                       # number of demand (read+write) MSHR misses (Count)
system.l2cache.overallMshrMisses::cpu.inst         1637                       # number of overall MSHR misses (Count)
system.l2cache.overallMshrMisses::cpu.data       846624                       # number of overall MSHR misses (Count)
system.l2cache.overallMshrMisses::total        848261                       # number of overall MSHR misses (Count)
system.l2cache.demandMshrMissLatency::cpu.inst    244788000                       # number of demand (read+write) MSHR miss ticks (Tick)
system.l2cache.demandMshrMissLatency::cpu.data  83473423000                       # number of demand (read+write) MSHR miss ticks (Tick)
system.l2cache.demandMshrMissLatency::total  83718211000                       # number of demand (read+write) MSHR miss ticks (Tick)
system.l2cache.overallMshrMissLatency::cpu.inst    244788000                       # number of overall MSHR miss ticks (Tick)
system.l2cache.overallMshrMissLatency::cpu.data  83473423000                       # number of overall MSHR miss ticks (Tick)
system.l2cache.overallMshrMissLatency::total  83718211000                       # number of overall MSHR miss ticks (Tick)
system.l2cache.demandMshrMissRate::cpu.inst     0.921216                       # mshr miss ratio for demand accesses (Ratio)
system.l2cache.demandMshrMissRate::cpu.data     0.890000                       # mshr miss ratio for demand accesses (Ratio)
system.l2cache.demandMshrMissRate::total     0.890058                       # mshr miss ratio for demand accesses (Ratio)
system.l2cache.overallMshrMissRate::cpu.inst     0.921216                       # mshr miss ratio for overall accesses (Ratio)
system.l2cache.overallMshrMissRate::cpu.data     0.890000                       # mshr miss ratio for overall accesses (Ratio)
system.l2cache.overallMshrMissRate::total     0.890058                       # mshr miss ratio for overall accesses (Ratio)
system.l2cache.demandAvgMshrMissLatency::cpu.inst 149534.514356                       # average overall mshr miss latency ((Cycle/Count))
system.l2cache.demandAvgMshrMissLatency::cpu.data 98595.625685                       # average overall mshr miss latency ((Cycle/Count))
system.l2cache.demandAvgMshrMissLatency::total 98693.929109                       # average overall mshr miss latency ((Cycle/Count))
system.l2cache.overallAvgMshrMissLatency::cpu.inst 149534.514356                       # average overall mshr miss latency ((Cycle/Count))
system.l2cache.overallAvgMshrMissLatency::cpu.data 98595.625685                       # average overall mshr miss latency ((Cycle/Count))
system.l2cache.overallAvgMshrMissLatency::total 98693.929109                       # average overall mshr miss latency ((Cycle/Count))
system.l2cache.replacements                    866464                       # number of replacements (Count)
system.l2cache.CleanEvict.mshrMisses::writebacks         2288                       # number of CleanEvict MSHR misses (Count)
system.l2cache.CleanEvict.mshrMisses::total         2288                       # number of CleanEvict MSHR misses (Count)
system.l2cache.CleanEvict.mshrMissRate::writebacks          inf                       # mshr miss rate for CleanEvict accesses (Ratio)
system.l2cache.CleanEvict.mshrMissRate::total          inf                       # mshr miss rate for CleanEvict accesses (Ratio)
system.l2cache.ReadExReq.hits::cpu.data         64505                       # number of ReadExReq hits (Count)
system.l2cache.ReadExReq.hits::total            64505                       # number of ReadExReq hits (Count)
system.l2cache.ReadExReq.misses::cpu.data       357578                       # number of ReadExReq misses (Count)
system.l2cache.ReadExReq.misses::total         357578                       # number of ReadExReq misses (Count)
system.l2cache.ReadExReq.missLatency::cpu.data  44777416000                       # number of ReadExReq miss ticks (Tick)
system.l2cache.ReadExReq.missLatency::total  44777416000                       # number of ReadExReq miss ticks (Tick)
system.l2cache.ReadExReq.accesses::cpu.data       422083                       # number of ReadExReq accesses(hits+misses) (Count)
system.l2cache.ReadExReq.accesses::total       422083                       # number of ReadExReq accesses(hits+misses) (Count)
system.l2cache.ReadExReq.missRate::cpu.data     0.847175                       # miss rate for ReadExReq accesses (Ratio)
system.l2cache.ReadExReq.missRate::total     0.847175                       # miss rate for ReadExReq accesses (Ratio)
system.l2cache.ReadExReq.avgMissLatency::cpu.data 125224.191645                       # average ReadExReq miss latency ((Tick/Count))
system.l2cache.ReadExReq.avgMissLatency::total 125224.191645                       # average ReadExReq miss latency ((Tick/Count))
system.l2cache.ReadExReq.mshrMisses::cpu.data       357578                       # number of ReadExReq MSHR misses (Count)
system.l2cache.ReadExReq.mshrMisses::total       357578                       # number of ReadExReq MSHR misses (Count)
system.l2cache.ReadExReq.mshrMissLatency::cpu.data  39056168000                       # number of ReadExReq MSHR miss ticks (Tick)
system.l2cache.ReadExReq.mshrMissLatency::total  39056168000                       # number of ReadExReq MSHR miss ticks (Tick)
system.l2cache.ReadExReq.mshrMissRate::cpu.data     0.847175                       # mshr miss rate for ReadExReq accesses (Ratio)
system.l2cache.ReadExReq.mshrMissRate::total     0.847175                       # mshr miss rate for ReadExReq accesses (Ratio)
system.l2cache.ReadExReq.avgMshrMissLatency::cpu.data 109224.191645                       # average ReadExReq mshr miss latency ((Tick/Count))
system.l2cache.ReadExReq.avgMshrMissLatency::total 109224.191645                       # average ReadExReq mshr miss latency ((Tick/Count))
system.l2cache.ReadSharedReq.hits::cpu.inst          140                       # number of ReadSharedReq hits (Count)
system.l2cache.ReadSharedReq.hits::cpu.data        40134                       # number of ReadSharedReq hits (Count)
system.l2cache.ReadSharedReq.hits::total        40274                       # number of ReadSharedReq hits (Count)
system.l2cache.ReadSharedReq.misses::cpu.inst         1637                       # number of ReadSharedReq misses (Count)
system.l2cache.ReadSharedReq.misses::cpu.data       489046                       # number of ReadSharedReq misses (Count)
system.l2cache.ReadSharedReq.misses::total       490683                       # number of ReadSharedReq misses (Count)
system.l2cache.ReadSharedReq.missLatency::cpu.inst    270980000                       # number of ReadSharedReq miss ticks (Tick)
system.l2cache.ReadSharedReq.missLatency::cpu.data  52241991000                       # number of ReadSharedReq miss ticks (Tick)
system.l2cache.ReadSharedReq.missLatency::total  52512971000                       # number of ReadSharedReq miss ticks (Tick)
system.l2cache.ReadSharedReq.accesses::cpu.inst         1777                       # number of ReadSharedReq accesses(hits+misses) (Count)
system.l2cache.ReadSharedReq.accesses::cpu.data       529180                       # number of ReadSharedReq accesses(hits+misses) (Count)
system.l2cache.ReadSharedReq.accesses::total       530957                       # number of ReadSharedReq accesses(hits+misses) (Count)
system.l2cache.ReadSharedReq.missRate::cpu.inst     0.921216                       # miss rate for ReadSharedReq accesses (Ratio)
system.l2cache.ReadSharedReq.missRate::cpu.data     0.924158                       # miss rate for ReadSharedReq accesses (Ratio)
system.l2cache.ReadSharedReq.missRate::total     0.924148                       # miss rate for ReadSharedReq accesses (Ratio)
system.l2cache.ReadSharedReq.avgMissLatency::cpu.inst 165534.514356                       # average ReadSharedReq miss latency ((Tick/Count))
system.l2cache.ReadSharedReq.avgMissLatency::cpu.data 106824.288513                       # average ReadSharedReq miss latency ((Tick/Count))
system.l2cache.ReadSharedReq.avgMissLatency::total 107020.155579                       # average ReadSharedReq miss latency ((Tick/Count))
system.l2cache.ReadSharedReq.mshrMisses::cpu.inst         1637                       # number of ReadSharedReq MSHR misses (Count)
system.l2cache.ReadSharedReq.mshrMisses::cpu.data       489046                       # number of ReadSharedReq MSHR misses (Count)
system.l2cache.ReadSharedReq.mshrMisses::total       490683                       # number of ReadSharedReq MSHR misses (Count)
system.l2cache.ReadSharedReq.mshrMissLatency::cpu.inst    244788000                       # number of ReadSharedReq MSHR miss ticks (Tick)
system.l2cache.ReadSharedReq.mshrMissLatency::cpu.data  44417255000                       # number of ReadSharedReq MSHR miss ticks (Tick)
system.l2cache.ReadSharedReq.mshrMissLatency::total  44662043000                       # number of ReadSharedReq MSHR miss ticks (Tick)
system.l2cache.ReadSharedReq.mshrMissRate::cpu.inst     0.921216                       # mshr miss rate for ReadSharedReq accesses (Ratio)
system.l2cache.ReadSharedReq.mshrMissRate::cpu.data     0.924158                       # mshr miss rate for ReadSharedReq accesses (Ratio)
system.l2cache.ReadSharedReq.mshrMissRate::total     0.924148                       # mshr miss rate for ReadSharedReq accesses (Ratio)
system.l2cache.ReadSharedReq.avgMshrMissLatency::cpu.inst 149534.514356                       # average ReadSharedReq mshr miss latency ((Tick/Count))
system.l2cache.ReadSharedReq.avgMshrMissLatency::cpu.data 90824.288513                       # average ReadSharedReq mshr miss latency ((Tick/Count))
system.l2cache.ReadSharedReq.avgMshrMissLatency::total 91020.155579                       # average ReadSharedReq mshr miss latency ((Tick/Count))
system.l2cache.UpgradeReq.hits::cpu.data        24424                       # number of UpgradeReq hits (Count)
system.l2cache.UpgradeReq.hits::total           24424                       # number of UpgradeReq hits (Count)
system.l2cache.UpgradeReq.accesses::cpu.data        24424                       # number of UpgradeReq accesses(hits+misses) (Count)
system.l2cache.UpgradeReq.accesses::total        24424                       # number of UpgradeReq accesses(hits+misses) (Count)
system.l2cache.WritebackDirty.hits::writebacks       495280                       # number of WritebackDirty hits (Count)
system.l2cache.WritebackDirty.hits::total       495280                       # number of WritebackDirty hits (Count)
system.l2cache.WritebackDirty.accesses::writebacks       495280                       # number of WritebackDirty accesses(hits+misses) (Count)
system.l2cache.WritebackDirty.accesses::total       495280                       # number of WritebackDirty accesses(hits+misses) (Count)
system.l2cache.power_state.pwrStateResidencyTicks::UNDEFINED 1950928398000                       # Cumulative time (in ticks) in various power states (Tick)
system.l2cache.tags.tagsInUse              255.995726                       # Average ticks per tags in use ((Tick/Count))
system.l2cache.tags.totalRefs                 1928166                       # Total number of references to valid blocks. (Count)
system.l2cache.tags.sampledRefs                866720                       # Sample count of references to valid blocks. (Count)
system.l2cache.tags.avgRefs                  2.224670                       # Average number of references to valid blocks. ((Count/Count))
system.l2cache.tags.warmupTick                 154000                       # The tick when the warmup percentage was hit. (Tick)
system.l2cache.tags.occupancies::writebacks     2.068980                       # Average occupied blocks per tick, per requestor ((Count/Tick))
system.l2cache.tags.occupancies::cpu.inst     0.468315                       # Average occupied blocks per tick, per requestor ((Count/Tick))
system.l2cache.tags.occupancies::cpu.data   253.458431                       # Average occupied blocks per tick, per requestor ((Count/Tick))
system.l2cache.tags.avgOccs::writebacks      0.008082                       # Average percentage of cache occupancy ((Ratio/Tick))
system.l2cache.tags.avgOccs::cpu.inst        0.001829                       # Average percentage of cache occupancy ((Ratio/Tick))
system.l2cache.tags.avgOccs::cpu.data        0.990072                       # Average percentage of cache occupancy ((Ratio/Tick))
system.l2cache.tags.avgOccs::total           0.999983                       # Average percentage of cache occupancy ((Ratio/Tick))
system.l2cache.tags.occupanciesTaskId::1024          256                       # Occupied blocks per task id (Count)
system.l2cache.tags.ageTaskId_1024::0              48                       # Occupied blocks per task id, per block age (Count)
system.l2cache.tags.ageTaskId_1024::1              95                       # Occupied blocks per task id, per block age (Count)
system.l2cache.tags.ageTaskId_1024::2             113                       # Occupied blocks per task id, per block age (Count)
system.l2cache.tags.ratioOccsTaskId::1024            1                       # Ratio of occupied blocks and all blocks, per task id (Ratio)
system.l2cache.tags.tagAccesses               8588536                       # Number of tag accesses (Count)
system.l2cache.tags.dataAccesses              8588536                       # Number of data accesses (Count)
system.l2cache.tags.power_state.pwrStateResidencyTicks::UNDEFINED 1950928398000                       # Cumulative time (in ticks) in various power states (Tick)
system.l3bus.transDist::ReadResp               490683                       # Transaction distribution (Count)
system.l3bus.transDist::WritebackDirty         950101                       # Transaction distribution (Count)
system.l3bus.transDist::CleanEvict             281459                       # Transaction distribution (Count)
system.l3bus.transDist::ReadExReq              357578                       # Transaction distribution (Count)
system.l3bus.transDist::ReadExResp             357578                       # Transaction distribution (Count)
system.l3bus.transDist::ReadSharedReq          490683                       # Transaction distribution (Count)
system.l3bus.pktCount_system.l2cache.mem_side_port::system.l3cache.cpu_side_port      2545206                       # Packet count per connected requestor and responder (Count)
system.l3bus.pktSize_system.l2cache.mem_side_port::system.l3cache.cpu_side_port     97931072                       # Cumulative packet size per connected requestor and responder (Byte)
system.l3bus.snoops                            382876                       # Total snoops (Count)
system.l3bus.snoopTraffic                    17164096                       # Total snoop traffic (Byte)
system.l3bus.snoopFanout::samples             1231137                       # Request fanout histogram (Count)
system.l3bus.snoopFanout::mean               0.001406                       # Request fanout histogram (Count)
system.l3bus.snoopFanout::stdev              0.037471                       # Request fanout histogram (Count)
system.l3bus.snoopFanout::underflows                0      0.00%      0.00% # Request fanout histogram (Count)
system.l3bus.snoopFanout::0                   1229406     99.86%     99.86% # Request fanout histogram (Count)
system.l3bus.snoopFanout::1                      1731      0.14%    100.00% # Request fanout histogram (Count)
system.l3bus.snoopFanout::overflows                 0      0.00%    100.00% # Request fanout histogram (Count)
system.l3bus.snoopFanout::min_value                 0                       # Request fanout histogram (Count)
system.l3bus.snoopFanout::max_value                 1                       # Request fanout histogram (Count)
system.l3bus.snoopFanout::total               1231137                       # Request fanout histogram (Count)
system.l3bus.power_state.pwrStateResidencyTicks::UNDEFINED 1950928398000                       # Cumulative time (in ticks) in various power states (Tick)
system.l3bus.reqLayer0.occupancy           3060769000                       # Layer occupancy (ticks) (Tick)
system.l3bus.reqLayer0.utilization                0.0                       # Layer utilization (Ratio)
system.l3bus.respLayer0.occupancy          2544783000                       # Layer occupancy (ticks) (Tick)
system.l3bus.respLayer0.utilization               0.0                       # Layer utilization (Ratio)
system.l3bus.snoop_filter.totRequests         1696945                       # Total number of requests made to the snoop filter. (Count)
system.l3bus.snoop_filter.hitSingleRequests       848684                       # Number of requests hitting in the snoop filter with a single holder of the requested data. (Count)
system.l3bus.snoop_filter.hitMultiRequests            0                       # Number of requests hitting in the snoop filter with multiple (>1) holders of the requested data. (Count)
system.l3bus.snoop_filter.totSnoops              1731                       # Total number of snoops made to the snoop filter. (Count)
system.l3bus.snoop_filter.hitSingleSnoops         1731                       # Number of snoops hitting in the snoop filter with a single holder of the requested data. (Count)
system.l3bus.snoop_filter.hitMultiSnoops            0                       # Number of snoops hitting in the snoop filter with multiple (>1) holders of the requested data. (Count)
system.l3cache.demandHits::cpu.inst                22                       # number of demand (read+write) hits (Count)
system.l3cache.demandHits::cpu.data            464777                       # number of demand (read+write) hits (Count)
system.l3cache.demandHits::total               464799                       # number of demand (read+write) hits (Count)
system.l3cache.overallHits::cpu.inst               22                       # number of overall hits (Count)
system.l3cache.overallHits::cpu.data           464777                       # number of overall hits (Count)
system.l3cache.overallHits::total              464799                       # number of overall hits (Count)
system.l3cache.demandMisses::cpu.inst            1615                       # number of demand (read+write) misses (Count)
system.l3cache.demandMisses::cpu.data          381847                       # number of demand (read+write) misses (Count)
system.l3cache.demandMisses::total             383462                       # number of demand (read+write) misses (Count)
system.l3cache.overallMisses::cpu.inst           1615                       # number of overall misses (Count)
system.l3cache.overallMisses::cpu.data         381847                       # number of overall misses (Count)
system.l3cache.overallMisses::total            383462                       # number of overall misses (Count)
system.l3cache.demandMissLatency::cpu.inst    214486000                       # number of demand (read+write) miss ticks (Tick)
system.l3cache.demandMissLatency::cpu.data  50572665000                       # number of demand (read+write) miss ticks (Tick)
system.l3cache.demandMissLatency::total   50787151000                       # number of demand (read+write) miss ticks (Tick)
system.l3cache.overallMissLatency::cpu.inst    214486000                       # number of overall miss ticks (Tick)
system.l3cache.overallMissLatency::cpu.data  50572665000                       # number of overall miss ticks (Tick)
system.l3cache.overallMissLatency::total  50787151000                       # number of overall miss ticks (Tick)
system.l3cache.demandAccesses::cpu.inst          1637                       # number of demand (read+write) accesses (Count)
system.l3cache.demandAccesses::cpu.data        846624                       # number of demand (read+write) accesses (Count)
system.l3cache.demandAccesses::total           848261                       # number of demand (read+write) accesses (Count)
system.l3cache.overallAccesses::cpu.inst         1637                       # number of overall (read+write) accesses (Count)
system.l3cache.overallAccesses::cpu.data       846624                       # number of overall (read+write) accesses (Count)
system.l3cache.overallAccesses::total          848261                       # number of overall (read+write) accesses (Count)
system.l3cache.demandMissRate::cpu.inst      0.986561                       # miss rate for demand accesses (Ratio)
system.l3cache.demandMissRate::cpu.data      0.451023                       # miss rate for demand accesses (Ratio)
system.l3cache.demandMissRate::total         0.452057                       # miss rate for demand accesses (Ratio)
system.l3cache.overallMissRate::cpu.inst     0.986561                       # miss rate for overall accesses (Ratio)
system.l3cache.overallMissRate::cpu.data     0.451023                       # miss rate for overall accesses (Ratio)
system.l3cache.overallMissRate::total        0.452057                       # miss rate for overall accesses (Ratio)
system.l3cache.demandAvgMissLatency::cpu.inst 132808.668731                       # average overall miss latency ((Cycle/Count))
system.l3cache.demandAvgMissLatency::cpu.data 132442.221623                       # average overall miss latency ((Cycle/Count))
system.l3cache.demandAvgMissLatency::total 132443.764962                       # average overall miss latency ((Cycle/Count))
system.l3cache.overallAvgMissLatency::cpu.inst 132808.668731                       # average overall miss latency ((Cycle/Count))
system.l3cache.overallAvgMissLatency::cpu.data 132442.221623                       # average overall miss latency ((Cycle/Count))
system.l3cache.overallAvgMissLatency::total 132443.764962                       # average overall miss latency ((Cycle/Count))
system.l3cache.blockedCycles::no_mshrs              0                       # number of cycles access was blocked (Cycle)
system.l3cache.blockedCycles::no_targets            0                       # number of cycles access was blocked (Cycle)
system.l3cache.blockedCauses::no_mshrs              0                       # number of times access was blocked (Count)
system.l3cache.blockedCauses::no_targets            0                       # number of times access was blocked (Count)
system.l3cache.avgBlocked::no_mshrs               nan                       # average number of cycles each access was blocked ((Cycle/Count))
system.l3cache.avgBlocked::no_targets             nan                       # average number of cycles each access was blocked ((Cycle/Count))
system.l3cache.writebacks::writebacks          268189                       # number of writebacks (Count)
system.l3cache.writebacks::total               268189                       # number of writebacks (Count)
system.l3cache.demandMshrMisses::cpu.inst         1615                       # number of demand (read+write) MSHR misses (Count)
system.l3cache.demandMshrMisses::cpu.data       381847                       # number of demand (read+write) MSHR misses (Count)
system.l3cache.demandMshrMisses::total         383462                       # number of demand (read+write) MSHR misses (Count)
system.l3cache.overallMshrMisses::cpu.inst         1615                       # number of overall MSHR misses (Count)
system.l3cache.overallMshrMisses::cpu.data       381847                       # number of overall MSHR misses (Count)
system.l3cache.overallMshrMisses::total        383462                       # number of overall MSHR misses (Count)
system.l3cache.demandMshrMissLatency::cpu.inst    154731000                       # number of demand (read+write) MSHR miss ticks (Tick)
system.l3cache.demandMshrMissLatency::cpu.data  36444326000                       # number of demand (read+write) MSHR miss ticks (Tick)
system.l3cache.demandMshrMissLatency::total  36599057000                       # number of demand (read+write) MSHR miss ticks (Tick)
system.l3cache.overallMshrMissLatency::cpu.inst    154731000                       # number of overall MSHR miss ticks (Tick)
system.l3cache.overallMshrMissLatency::cpu.data  36444326000                       # number of overall MSHR miss ticks (Tick)
system.l3cache.overallMshrMissLatency::total  36599057000                       # number of overall MSHR miss ticks (Tick)
system.l3cache.demandMshrMissRate::cpu.inst     0.986561                       # mshr miss ratio for demand accesses (Ratio)
system.l3cache.demandMshrMissRate::cpu.data     0.451023                       # mshr miss ratio for demand accesses (Ratio)
system.l3cache.demandMshrMissRate::total     0.452057                       # mshr miss ratio for demand accesses (Ratio)
system.l3cache.overallMshrMissRate::cpu.inst     0.986561                       # mshr miss ratio for overall accesses (Ratio)
system.l3cache.overallMshrMissRate::cpu.data     0.451023                       # mshr miss ratio for overall accesses (Ratio)
system.l3cache.overallMshrMissRate::total     0.452057                       # mshr miss ratio for overall accesses (Ratio)
system.l3cache.demandAvgMshrMissLatency::cpu.inst 95808.668731                       # average overall mshr miss latency ((Cycle/Count))
system.l3cache.demandAvgMshrMissLatency::cpu.data 95442.221623                       # average overall mshr miss latency ((Cycle/Count))
system.l3cache.demandAvgMshrMissLatency::total 95443.764962                       # average overall mshr miss latency ((Cycle/Count))
system.l3cache.overallAvgMshrMissLatency::cpu.inst 95808.668731                       # average overall mshr miss latency ((Cycle/Count))
system.l3cache.overallAvgMshrMissLatency::cpu.data 95442.221623                       # average overall mshr miss latency ((Cycle/Count))
system.l3cache.overallAvgMshrMissLatency::total 95443.764962                       # average overall mshr miss latency ((Cycle/Count))
system.l3cache.replacements                    382876                       # number of replacements (Count)
system.l3cache.CleanEvict.mshrMisses::writebacks         1292                       # number of CleanEvict MSHR misses (Count)
system.l3cache.CleanEvict.mshrMisses::total         1292                       # number of CleanEvict MSHR misses (Count)
system.l3cache.CleanEvict.mshrMissRate::writebacks          inf                       # mshr miss rate for CleanEvict accesses (Ratio)
system.l3cache.CleanEvict.mshrMissRate::total          inf                       # mshr miss rate for CleanEvict accesses (Ratio)
system.l3cache.ReadExReq.hits::cpu.data        156619                       # number of ReadExReq hits (Count)
system.l3cache.ReadExReq.hits::total           156619                       # number of ReadExReq hits (Count)
system.l3cache.ReadExReq.misses::cpu.data       200959                       # number of ReadExReq misses (Count)
system.l3cache.ReadExReq.misses::total         200959                       # number of ReadExReq misses (Count)
system.l3cache.ReadExReq.missLatency::cpu.data  26668242000                       # number of ReadExReq miss ticks (Tick)
system.l3cache.ReadExReq.missLatency::total  26668242000                       # number of ReadExReq miss ticks (Tick)
system.l3cache.ReadExReq.accesses::cpu.data       357578                       # number of ReadExReq accesses(hits+misses) (Count)
system.l3cache.ReadExReq.accesses::total       357578                       # number of ReadExReq accesses(hits+misses) (Count)
system.l3cache.ReadExReq.missRate::cpu.data     0.562000                       # miss rate for ReadExReq accesses (Ratio)
system.l3cache.ReadExReq.missRate::total     0.562000                       # miss rate for ReadExReq accesses (Ratio)
system.l3cache.ReadExReq.avgMissLatency::cpu.data 132704.890052                       # average ReadExReq miss latency ((Tick/Count))
system.l3cache.ReadExReq.avgMissLatency::total 132704.890052                       # average ReadExReq miss latency ((Tick/Count))
system.l3cache.ReadExReq.mshrMisses::cpu.data       200959                       # number of ReadExReq MSHR misses (Count)
system.l3cache.ReadExReq.mshrMisses::total       200959                       # number of ReadExReq MSHR misses (Count)
system.l3cache.ReadExReq.mshrMissLatency::cpu.data  19232759000                       # number of ReadExReq MSHR miss ticks (Tick)
system.l3cache.ReadExReq.mshrMissLatency::total  19232759000                       # number of ReadExReq MSHR miss ticks (Tick)
system.l3cache.ReadExReq.mshrMissRate::cpu.data     0.562000                       # mshr miss rate for ReadExReq accesses (Ratio)
system.l3cache.ReadExReq.mshrMissRate::total     0.562000                       # mshr miss rate for ReadExReq accesses (Ratio)
system.l3cache.ReadExReq.avgMshrMissLatency::cpu.data 95704.890052                       # average ReadExReq mshr miss latency ((Tick/Count))
system.l3cache.ReadExReq.avgMshrMissLatency::total 95704.890052                       # average ReadExReq mshr miss latency ((Tick/Count))
system.l3cache.ReadSharedReq.hits::cpu.inst           22                       # number of ReadSharedReq hits (Count)
system.l3cache.ReadSharedReq.hits::cpu.data       308158                       # number of ReadSharedReq hits (Count)
system.l3cache.ReadSharedReq.hits::total       308180                       # number of ReadSharedReq hits (Count)
system.l3cache.ReadSharedReq.misses::cpu.inst         1615                       # number of ReadSharedReq misses (Count)
system.l3cache.ReadSharedReq.misses::cpu.data       180888                       # number of ReadSharedReq misses (Count)
system.l3cache.ReadSharedReq.misses::total       182503                       # number of ReadSharedReq misses (Count)
system.l3cache.ReadSharedReq.missLatency::cpu.inst    214486000                       # number of ReadSharedReq miss ticks (Tick)
system.l3cache.ReadSharedReq.missLatency::cpu.data  23904423000                       # number of ReadSharedReq miss ticks (Tick)
system.l3cache.ReadSharedReq.missLatency::total  24118909000                       # number of ReadSharedReq miss ticks (Tick)
system.l3cache.ReadSharedReq.accesses::cpu.inst         1637                       # number of ReadSharedReq accesses(hits+misses) (Count)
system.l3cache.ReadSharedReq.accesses::cpu.data       489046                       # number of ReadSharedReq accesses(hits+misses) (Count)
system.l3cache.ReadSharedReq.accesses::total       490683                       # number of ReadSharedReq accesses(hits+misses) (Count)
system.l3cache.ReadSharedReq.missRate::cpu.inst     0.986561                       # miss rate for ReadSharedReq accesses (Ratio)
system.l3cache.ReadSharedReq.missRate::cpu.data     0.369879                       # miss rate for ReadSharedReq accesses (Ratio)
system.l3cache.ReadSharedReq.missRate::total     0.371937                       # miss rate for ReadSharedReq accesses (Ratio)
system.l3cache.ReadSharedReq.avgMissLatency::cpu.inst 132808.668731                       # average ReadSharedReq miss latency ((Tick/Count))
system.l3cache.ReadSharedReq.avgMissLatency::cpu.data 132150.407987                       # average ReadSharedReq miss latency ((Tick/Count))
system.l3cache.ReadSharedReq.avgMissLatency::total 132156.233048                       # average ReadSharedReq miss latency ((Tick/Count))
[...]
system.mem_ctrl.dram.readBursts                762113                       # Number of DRAM read bursts (Count)
system.mem_ctrl.dram.writeBursts               536328                       # Number of DRAM write bursts (Count)
system.mem_ctrl.dram.perBankRdBursts::0         94266                       # Per bank write bursts (Count)
system.mem_ctrl.dram.perBankRdBursts::1         94265                       # Per bank write bursts (Count)
system.mem_ctrl.dram.perBankRdBursts::2         96124                       # Per bank write bursts (Count)
system.mem_ctrl.dram.perBankRdBursts::3         96124                       # Per bank write bursts (Count)
system.mem_ctrl.dram.perBankRdBursts::4         95934                       # Per bank write bursts (Count)
system.mem_ctrl.dram.perBankRdBursts::5         95934                       # Per bank write bursts (Count)
system.mem_ctrl.dram.perBankRdBursts::6         94733                       # Per bank write bursts (Count)
system.mem_ctrl.dram.perBankRdBursts::7         94733                       # Per bank write bursts (Count)
system.mem_ctrl.dram.perBankWrBursts::0         66022                       # Per bank write bursts (Count)
system.mem_ctrl.dram.perBankWrBursts::1         66022                       # Per bank write bursts (Count)
system.mem_ctrl.dram.perBankWrBursts::2         67476                       # Per bank write bursts (Count)
system.mem_ctrl.dram.perBankWrBursts::3         67476                       # Per bank write bursts (Count)
system.mem_ctrl.dram.perBankWrBursts::4         68254                       # Per bank write bursts (Count)
system.mem_ctrl.dram.perBankWrBursts::5         68254                       # Per bank write bursts (Count)
system.mem_ctrl.dram.perBankWrBursts::6         66412                       # Per bank write bursts (Count)
system.mem_ctrl.dram.perBankWrBursts::7         66412                       # Per bank write bursts (Count)
system.mem_ctrl.dram.totQLat               9511521400                       # Total ticks spent queuing (Tick)
system.mem_ctrl.dram.totBusLat             2438761600                       # Total ticks spent in databus transfers (Tick)
system.mem_ctrl.dram.totMemAccLat         19495201700                       # Total ticks spent from burst creation until serviced by the DRAM (Tick)
system.mem_ctrl.dram.avgQLat                 12480.46                       # Average queueing delay per DRAM burst ((Tick/Count))
system.mem_ctrl.dram.avgBusLat                3200.00                       # Average bus latency per DRAM burst ((Tick/Count))
system.mem_ctrl.dram.avgMemAccLat            25580.46                       # Average memory access latency per DRAM burst ((Tick/Count))
system.mem_ctrl.dram.readRowHits                    0                       # Number of row buffer hits during reads (Count)
system.mem_ctrl.dram.writeRowHits              138084                       # Number of row buffer hits during writes (Count)
system.mem_ctrl.dram.readRowHitRate              0.00                       # Row buffer hit rate for reads (Ratio)
system.mem_ctrl.dram.writeRowHitRate            25.75                       # Row buffer hit rate for writes (Ratio)
system.mem_ctrl.dram.bytesPerActivate::samples      1160357                       # Bytes accessed per row activation (Byte)
system.mem_ctrl.dram.bytesPerActivate::mean    35.808042                       # Bytes accessed per row activation (Byte)
system.mem_ctrl.dram.bytesPerActivate::gmean    34.609704                       # Bytes accessed per row activation (Byte)
system.mem_ctrl.dram.bytesPerActivate::stdev    11.681488                       # Bytes accessed per row activation (Byte)
system.mem_ctrl.dram.bytesPerActivate::32-47      1038757     89.52%     89.52% # Bytes accessed per row activation (Byte)
system.mem_ctrl.dram.bytesPerActivate::64-79       105120      9.06%     98.58% # Bytes accessed per row activation (Byte)
system.mem_ctrl.dram.bytesPerActivate::96-111        16476      1.42%    100.00% # Bytes accessed per row activation (Byte)
system.mem_ctrl.dram.bytesPerActivate::128-143            4      0.00%    100.00% # Bytes accessed per row activation (Byte)
system.mem_ctrl.dram.bytesPerActivate::total      1160357                       # Bytes accessed per row activation (Byte)
system.mem_ctrl.dram.bytesRead               24387616                       # Total bytes read (Byte)
system.mem_ctrl.dram.bytesWritten            17162496                       # Total bytes written (Byte)
system.mem_ctrl.dram.avgRdBW                12.500518                       # Average DRAM read bandwidth in MiBytes/s ((Byte/Second))
system.mem_ctrl.dram.avgWrBW                 8.797092                       # Average DRAM write bandwidth in MiBytes/s ((Byte/Second))
system.mem_ctrl.dram.peakBW                  10000.00                       # Theoretical peak bandwidth in MiByte/s ((Byte/Second))
system.mem_ctrl.dram.busUtil                     0.21                       # Data bus utilization in percentage (Ratio)
system.mem_ctrl.dram.busUtilRead                 0.13                       # Data bus utilization in percentage for reads (Ratio)
system.mem_ctrl.dram.busUtilWrite                0.09                       # Data bus utilization in percentage for writes (Ratio)
system.mem_ctrl.dram.pageHitRate                10.63                       # Row buffer hit rate, read and write combined (Ratio)
system.mem_ctrl.dram.power_state.pwrStateResidencyTicks::UNDEFINED 1950928398000                       # Cumulative time (in ticks) in various power states (Tick)
system.mem_ctrl.dram.rank0.actEnergy     157653831.599782                       # Energy for activate commands per rank (pJ) (Joule)
system.mem_ctrl.dram.rank0.preEnergy         78998652                       # Energy for precharge commands per rank (pJ) (Joule)
system.mem_ctrl.dram.rank0.readEnergy    107688907.200113                       # Energy for read commands per rank (pJ) (Joule)
system.mem_ctrl.dram.rank0.writeEnergy   55141574.399989                       # Energy for write commands per rank (pJ) (Joule)
system.mem_ctrl.dram.rank0.refreshEnergy 8768264647.281017                       # Energy for refresh commands per rank (pJ) (Joule)
system.mem_ctrl.dram.rank0.actBackEnergy 1710305064.009341                       # Energy for active background per rank (pJ) (Joule)
system.mem_ctrl.dram.rank0.preBackEnergy 92204306227.250793                       # Energy for precharge background per rank (pJ) (Joule)
system.mem_ctrl.dram.rank0.actPowerDownEnergy            0                       # Energy for active power-down per rank (pJ) (Joule)
system.mem_ctrl.dram.rank0.prePowerDownEnergy            0                       # Energy for precharge power-down per rank (pJ) (Joule)
system.mem_ctrl.dram.rank0.selfRefreshEnergy            0                       # Energy for self refresh per rank (pJ) (Joule)
system.mem_ctrl.dram.rank0.totalEnergy   103082358903.630051                       # Total energy per rank (pJ) (Joule)
system.mem_ctrl.dram.rank0.averagePower     52.837592                       # Core power per rank (mW) (Watt)
system.mem_ctrl.dram.rank0.totalIdleTime            0                       # Total Idle time Per DRAM Rank (Tick)
system.mem_ctrl.dram.rank0.pwrStateTime::IDLE 1915985967600                       # Time in different power states (Tick)
system.mem_ctrl.dram.rank0.pwrStateTime::REF  29572393000                       # Time in different power states (Tick)
system.mem_ctrl.dram.rank0.pwrStateTime::SREF            0                       # Time in different power states (Tick)
system.mem_ctrl.dram.rank0.pwrStateTime::PRE_PDN            0                       # Time in different power states (Tick)
system.mem_ctrl.dram.rank0.pwrStateTime::ACT   5370037400                       # Time in different power states (Tick)
system.mem_ctrl.dram.rank0.pwrStateTime::ACT_PDN            0                       # Time in different power states (Tick)
system.mem_ctrl.dram.rank1.actEnergy     160792840.799777                       # Energy for activate commands per rank (pJ) (Joule)
system.mem_ctrl.dram.rank1.preEnergy         80571576                       # Energy for precharge commands per rank (pJ) (Joule)
system.mem_ctrl.dram.rank1.readEnergy    109812057.600120                       # Energy for read commands per rank (pJ) (Joule)
system.mem_ctrl.dram.rank1.writeEnergy   56355955.199990                       # Energy for write commands per rank (pJ) (Joule)
system.mem_ctrl.dram.rank1.refreshEnergy 8768264647.281017                       # Energy for refresh commands per rank (pJ) (Joule)
system.mem_ctrl.dram.rank1.actBackEnergy 1715032416.009326                       # Energy for active background per rank (pJ) (Joule)
system.mem_ctrl.dram.rank1.preBackEnergy 92200325299.251755                       # Energy for precharge background per rank (pJ) (Joule)
system.mem_ctrl.dram.rank1.actPowerDownEnergy            0                       # Energy for active power-down per rank (pJ) (Joule)
system.mem_ctrl.dram.rank1.prePowerDownEnergy            0                       # Energy for precharge power-down per rank (pJ) (Joule)
system.mem_ctrl.dram.rank1.selfRefreshEnergy            0                       # Energy for self refresh per rank (pJ) (Joule)
system.mem_ctrl.dram.rank1.totalEnergy   103091154792.030350                       # Total energy per rank (pJ) (Joule)
system.mem_ctrl.dram.rank1.averagePower     52.842101                       # Core power per rank (mW) (Watt)
system.mem_ctrl.dram.rank1.totalIdleTime            0                       # Total Idle time Per DRAM Rank (Tick)
system.mem_ctrl.dram.rank1.pwrStateTime::IDLE 1915886136500                       # Time in different power states (Tick)
system.mem_ctrl.dram.rank1.pwrStateTime::REF  29572393000                       # Time in different power states (Tick)
system.mem_ctrl.dram.rank1.pwrStateTime::SREF            0                       # Time in different power states (Tick)
system.mem_ctrl.dram.rank1.pwrStateTime::PRE_PDN            0                       # Time in different power states (Tick)
system.mem_ctrl.dram.rank1.pwrStateTime::ACT   5469868500                       # Time in different power states (Tick)
system.mem_ctrl.dram.rank1.pwrStateTime::ACT_PDN            0                       # Time in different power states (Tick)
system.mem_ctrl.dram.rank2.actEnergy     162145605.599772                       # Energy for activate commands per rank (pJ) (Joule)
system.mem_ctrl.dram.rank2.preEnergy         81249432                       # Energy for precharge commands per rank (pJ) (Joule)
system.mem_ctrl.dram.rank2.readEnergy    109595001.600121                       # Energy for read commands per rank (pJ) (Joule)
system.mem_ctrl.dram.rank2.writeEnergy   57005740.799989                       # Energy for write commands per rank (pJ) (Joule)
system.mem_ctrl.dram.rank2.refreshEnergy 8768264647.281017                       # Energy for refresh commands per rank (pJ) (Joule)
system.mem_ctrl.dram.rank2.actBackEnergy 1717642423.209331                       # Energy for active background per rank (pJ) (Joule)
system.mem_ctrl.dram.rank2.preBackEnergy 92198127398.452591                       # Energy for precharge background per rank (pJ) (Joule)
system.mem_ctrl.dram.rank2.actPowerDownEnergy            0                       # Energy for active power-down per rank (pJ) (Joule)
system.mem_ctrl.dram.rank2.prePowerDownEnergy            0                       # Energy for precharge power-down per rank (pJ) (Joule)
system.mem_ctrl.dram.rank2.selfRefreshEnergy            0                       # Energy for self refresh per rank (pJ) (Joule)
system.mem_ctrl.dram.rank2.totalEnergy   103094030248.833008                       # Total energy per rank (pJ) (Joule)
system.mem_ctrl.dram.rank2.averagePower     52.843575                       # Core power per rank (mW) (Watt)
system.mem_ctrl.dram.rank2.totalIdleTime            0                       # Total Idle time Per DRAM Rank (Tick)
system.mem_ctrl.dram.rank2.pwrStateTime::IDLE 1915834105700                       # Time in different power states (Tick)
system.mem_ctrl.dram.rank2.pwrStateTime::REF  29572393000                       # Time in different power states (Tick)
system.mem_ctrl.dram.rank2.pwrStateTime::SREF            0                       # Time in different power states (Tick)
system.mem_ctrl.dram.rank2.pwrStateTime::PRE_PDN            0                       # Time in different power states (Tick)
system.mem_ctrl.dram.rank2.pwrStateTime::ACT   5521899300                       # Time in different power states (Tick)
system.mem_ctrl.dram.rank2.pwrStateTime::ACT_PDN            0                       # Time in different power states (Tick)
system.mem_ctrl.dram.rank3.actEnergy     158532357.599781                       # Energy for activate commands per rank (pJ) (Joule)
system.mem_ctrl.dram.rank3.preEnergy         79438872                       # Energy for precharge commands per rank (pJ) (Joule)
system.mem_ctrl.dram.rank3.readEnergy    108222979.200115                       # Energy for read commands per rank (pJ) (Joule)
system.mem_ctrl.dram.rank3.writeEnergy   55467302.399989                       # Energy for write commands per rank (pJ) (Joule)
system.mem_ctrl.dram.rank3.refreshEnergy 8768264647.281017                       # Energy for refresh commands per rank (pJ) (Joule)
system.mem_ctrl.dram.rank3.actBackEnergy 1712069510.409326                       # Energy for active background per rank (pJ) (Joule)
system.mem_ctrl.dram.rank3.preBackEnergy 92202820377.653046                       # Energy for precharge background per rank (pJ) (Joule)
system.mem_ctrl.dram.rank3.actPowerDownEnergy            0                       # Energy for active power-down per rank (pJ) (Joule)
system.mem_ctrl.dram.rank3.prePowerDownEnergy            0                       # Energy for precharge power-down per rank (pJ) (Joule)
system.mem_ctrl.dram.rank3.selfRefreshEnergy            0                       # Energy for self refresh per rank (pJ) (Joule)
system.mem_ctrl.dram.rank3.totalEnergy   103084816046.431305                       # Total energy per rank (pJ) (Joule)
system.mem_ctrl.dram.rank3.averagePower     52.838852                       # Core power per rank (mW) (Watt)
system.mem_ctrl.dram.rank3.totalIdleTime            0                       # Total Idle time Per DRAM Rank (Tick)
system.mem_ctrl.dram.rank3.pwrStateTime::IDLE 1915951289000                       # Time in different power states (Tick)
system.mem_ctrl.dram.rank3.pwrStateTime::REF  29572393000                       # Time in different power states (Tick)
system.mem_ctrl.dram.rank3.pwrStateTime::SREF            0                       # Time in different power states (Tick)
system.mem_ctrl.dram.rank3.pwrStateTime::PRE_PDN            0                       # Time in different power states (Tick)
system.mem_ctrl.dram.rank3.pwrStateTime::ACT   5404716000                       # Time in different power states (Tick)
system.mem_ctrl.dram.rank3.pwrStateTime::ACT_PDN            0                       # Time in different power states (Tick)
system.mem_ctrl.power_state.pwrStateResidencyTicks::UNDEFINED 1950928398000                       # Cumulative time (in ticks) in various power states (Tick)
system.membus.transDist::ReadResp              182503                       # Transaction distribution (Count)
system.membus.transDist::WritebackDirty        268189                       # Transaction distribution (Count)
system.membus.transDist::CleanEvict            114249                       # Transaction distribution (Count)
system.membus.transDist::ReadExReq             200959                       # Transaction distribution (Count)
system.membus.transDist::ReadExResp            200959                       # Transaction distribution (Count)
system.membus.transDist::ReadSharedReq         182503                       # Transaction distribution (Count)
system.membus.pktCount_system.l3cache.mem_side_port::system.mem_ctrl.port      1149362                       # Packet count per connected requestor and responder (Count)
system.membus.pktCount::total                 1149362                       # Packet count per connected requestor and responder (Count)
system.membus.pktSize_system.l3cache.mem_side_port::system.mem_ctrl.port     41705664                       # Cumulative packet size per connected requestor and responder (Byte)
system.membus.pktSize::total                 41705664                       # Cumulative packet size per connected requestor and responder (Byte)
system.membus.snoops                                0                       # Total snoops (Count)
system.membus.snoopTraffic                          0                       # Total snoop traffic (Byte)
system.membus.snoopFanout::samples             383462                       # Request fanout histogram (Count)
system.membus.snoopFanout::mean                     0                       # Request fanout histogram (Count)
system.membus.snoopFanout::stdev                    0                       # Request fanout histogram (Count)
system.membus.snoopFanout::underflows               0      0.00%      0.00% # Request fanout histogram (Count)
system.membus.snoopFanout::0                   383462    100.00%    100.00% # Request fanout histogram (Count)
system.membus.snoopFanout::1                        0      0.00%    100.00% # Request fanout histogram (Count)
system.membus.snoopFanout::overflows                0      0.00%    100.00% # Request fanout histogram (Count)
system.membus.snoopFanout::min_value                0                       # Request fanout histogram (Count)
system.membus.snoopFanout::max_value                0                       # Request fanout histogram (Count)
system.membus.snoopFanout::total               383462                       # Request fanout histogram (Count)
system.membus.power_state.pwrStateResidencyTicks::UNDEFINED 1950928398000                       # Cumulative time (in ticks) in various power states (Tick)
system.membus.reqLayer0.occupancy          1838656000                       # Layer occupancy (ticks) (Tick)
system.membus.reqLayer0.utilization               0.0                       # Layer utilization (Ratio)
system.membus.respLayer0.occupancy         2107615400                       # Layer occupancy (ticks) (Tick)
system.membus.respLayer0.utilization              0.0                       # Layer utilization (Ratio)
system.membus.snoop_filter.totRequests         765900                       # Total number of requests made to the snoop filter. (Count)
system.membus.snoop_filter.hitSingleRequests       382438                       # Number of requests hitting in the snoop filter with a single holder of the requested data. (Count)
system.membus.snoop_filter.hitMultiRequests            0                       # Number of requests hitting in the snoop filter with multiple (>1) holders of the requested data. (Count)
system.membus.snoop_filter.totSnoops                0                       # Total number of snoops made to the snoop filter. (Count)
system.membus.snoop_filter.hitSingleSnoops            0                       # Number of snoops hitting in the snoop filter with a single holder of the requested data. (Count)
system.membus.snoop_filter.hitMultiSnoops            0                       # Number of snoops hitting in the snoop filter with multiple (>1) holders of the requested data. (Count)
system.workload.inst.arm                            0                       # number of arm instructions executed (Count)
system.workload.inst.quiesce                        0                       # number of quiesce instructions executed (Count)

---------- End Simulation Statistics   ----------
